version 2
run validation_network-0-20210913-02:51:58-2245
attr configname validation_network
attr datetime 20210913-02:51:58
attr experiment validation_network
attr inifile validation.ini
attr iterationvars ""
attr iterationvarsf ""
attr measurement ""
attr network validation_network_mm
attr processid 2245
attr repetition 0
attr replication #0
attr resultdir results
attr runnumber 0
attr seedset 0
param **.emission_success_probability 1
param **.buffers 50
param **.tomography_output_filename "\"Validate network\""
param **.channel_Loss_error_rate 0
param **.channel_X_error_rate 0.001
param **.channel_Z_error_rate 0
param **.channel_Y_error_rate 0
param **.memory_X_error_rate 0
param **.memory_Y_error_rate 0
param **.memory_Z_error_rate 0
param **.entanglement_swapping_with_purification true
param **.Hgate_error_rate 0
param **.Hgate_X_error_ratio 0
param **.Hgate_Y_error_ratio 0
param **.Hgate_Z_error_ratio 0
param **.Measurement_error_rate 0
param **.Measurement_X_error_ratio 0
param **.Measurement_Y_error_ratio 0
param **.Measurement_Z_error_ratio 0
param **.Xgate_error_rate 0
param **.Xgate_X_error_ratio 0
param **.Xgate_Y_error_ratio 0
param **.Xgate_Z_error_ratio 0
param **.Zgate_error_rate 0
param **.Zgate_X_error_ratio 0
param **.Zgate_Y_error_ratio 0
param **.Zgate_Z_error_ratio 0
param **.CNOTgate_error_rate 0
param **.CNOTgate_IZ_error_ratio 0
param **.CNOTgate_ZI_error_ratio 0
param **.CNOTgate_ZZ_error_ratio 0
param **.CNOTgate_IX_error_ratio 0
param **.CNOTgate_XI_error_ratio 0
param **.CNOTgate_XX_error_ratio 0
param **.CNOTgate_IY_error_ratio 0
param **.CNOTgate_YI_error_ratio 0
param **.CNOTgate_YY_error_ratio 0
param **.memory_X_error_rate 0
param **.memory_Y_error_rate 0
param **.memory_Z_error_rate 0
param **.memory_energy_excitation_rate 0
param **.memory_energy_relaxation_rate 0
param **.memory_completely_mixed_rate 0
param **.channel_Loss_error_rate 0
param **.channel_X_error_rate 0
param **.channel_Z_error_rate 0
param **.channel_Y_error_rate 0
param **.internal_hom_loss_rate 0
param **.internal_hom_error_rate 0
param **.internal_hom_required_precision 1.5e-9
param **.internal_hom_photon_detection_per_sec 1000000000
param **.internal_hom_darkcount_probability 0
param **.hom_loss_rate 0
param **.hom_error_rate 0
param **.hom_required_precision 1.5e-9
param **.hom_photon_detection_per_sec 1000000000
param **.hom_darkcount_probability 10e-8
param **.Initial_notification_timing_buffer "10 s"
param **.EndToEndConnection true
param **.TrafficPattern 1
param **.LoneInitiatorAddress 1
param **.entanglement_swapping_with_purification true
param **.link_tomography false
param **.distant_measure_count 7000
param **.initial_purification 0
param **.Purification_type 2002

vector 0 validation_network_mm.EndNode1.qnic_r[0].internal_hom.BSA Num_Bell_state:vector ETV
attr interpolationmode sample-hold
attr title "actual number of resource, vector"
vector 1 validation_network_mm.EndNode2.qnic_r[0].internal_hom.BSA Num_Bell_state:vector ETV
attr interpolationmode sample-hold
attr title "actual number of resource, vector"
0	474	10.000097400865	1
0	544	10.000097405865	2
0	558	10.000097406865	3
0	628	10.000097411865	4
0	642	10.000097412865	5
0	698	10.000097416865	6
0	768	10.000097421865	7
0	782	10.000097422865	8
0	824	10.000097425865	9
0	880	10.000097429865	10
0	922	10.000097432865	11
0	936	10.000097433865	12
0	964	10.000097435865	13
0	992	10.000097437865	14
0	1146	10.000097448865	15
0	1982	10.00019485373	16
0	1996	10.00019485473	17
0	2010	10.00019485573	18
0	2024	10.00019485673	19
0	2038	10.00019485773	20
0	2066	10.00019485973	21
0	2080	10.00019486073	22
0	2164	10.00019486673	23
0	2192	10.00019486873	24
0	2234	10.00019487173	25
0	2416	10.00019488473	26
0	2430	10.00019488573	27
0	2556	10.00019489473	28
0	3538	10.000292303595	29
0	3552	10.000292304595	30
0	3566	10.000292305595	31
0	3580	10.000292306595	32
0	3622	10.000292309595	33
0	3636	10.000292310595	34
0	3664	10.000292312595	35
0	3888	10.000292328595	36
0	3972	10.000292334595	37
0	3986	10.000292335595	38
0	4000	10.000292336595	39
0	4912	10.00038974146	40
0	4954	10.00038974446	41
0	4996	10.00038974746	42
0	5108	10.00038975546	43
0	5164	10.00038975946	44
0	5318	10.00038977046	45
0	5360	10.00038977346	46
0	5374	10.00038977446	47
0	5402	10.00038977646	48
0	5525	10.00038978446	49
0	5532	10.00038978546	50
0	5539	10.00038978646	51
0	6462	10.000487194325	52
0	6476	10.000487195325	53
0	6588	10.000487203325	54
0	6630	10.000487206325	55
0	6855	10.000487221325	56
0	6870	10.000487223325	57
0	6884	10.000487225325	58
0	7726	10.00058463419	59
0	7796	10.00058463919	60
0	7810	10.00058464019	61
0	7894	10.00058464619	62
0	7964	10.00058465119	63
0	8020	10.00058465519	64
0	8117	10.00058466219	65
0	8159	10.00058466819	66
0	8173	10.00058467019	67
0	8187	10.00058467219	68
0	9098	10.000682079055	69
0	9126	10.000682081055	70
0	9154	10.000682083055	71
0	9168	10.000682084055	72
0	9196	10.000682086055	73
0	9238	10.000682089055	74
0	9266	10.000682091055	75
0	9280	10.000682092055	76
0	9373	10.000682097055	77
0	9380	10.000682098055	78
0	9387	10.000682099055	79
0	9429	10.000682105055	80
0	9443	10.000682107055	81
0	9471	10.000682111055	82
0	9492	10.000682114055	83
0	9499	10.000682115055	84
0	9506	10.000682116055	85
0	9513	10.000682117055	86
0	9520	10.000682118055	87
0	9527	10.000682119055	88
0	9541	10.000682121055	89
0	9548	10.000682122055	90
0	10762	10.00077953092	91
0	10769	10.00077953192	92
0	10776	10.00077953292	93
0	10783	10.00077953392	94
0	10818	10.00077953892	95
0	10825	10.00077953992	96
0	10853	10.00077954392	97
0	10860	10.00077954492	98
0	10902	10.00077955092	99
0	10909	10.00077955192	100
0	10923	10.00077955392	101
0	10930	10.00077955492	102
0	10944	10.00077955692	103
0	10951	10.00077955792	104
0	10965	10.00077955992	105
0	11000	10.00077956492	106
0	11014	10.00077956692	107
0	11021	10.00077956792	108
0	12240	10.000876970785	109
0	12268	10.000876974785	110
0	12275	10.000876975785	111
0	12282	10.000876976785	112
0	12289	10.000876977785	113
0	12303	10.000876979785	114
0	12310	10.000876980785	115
0	12338	10.000876984785	116
0	12359	10.000876987785	117
0	12380	10.000876990785	118
0	12408	10.000876994785	119
0	12471	10.000877003785	120
0	12478	10.000877004785	121
0	12499	10.000877007785	122
0	12513	10.000877009785	123
0	12527	10.000877011785	124
0	13768	10.00097441465	125
0	13796	10.00097441865	126
0	13803	10.00097441965	127
0	13810	10.00097442065	128
0	13845	10.00097442565	129
0	13859	10.00097442765	130
0	13873	10.00097442965	131
0	14013	10.00097444965	132
0	14020	10.00097445065	133
0	14055	10.00097445565	134
0	14062	10.00097445665	135
0	14083	10.00097445965	136
0	15241	10.001071860515	137
0	15248	10.001071861515	138
0	15262	10.001071863515	139
0	15269	10.001071864515	140
0	15325	10.001071872515	141
0	15339	10.001071874515	142
0	15353	10.001071876515	143
0	15360	10.001071877515	144
0	15367	10.001071878515	145
0	15395	10.001071882515	146
0	15444	10.001071889515	147
0	15451	10.001071890515	148
0	15479	10.001071894515	149
0	15486	10.001071895515	150
0	15493	10.001071896515	151
0	15507	10.001071898515	152
0	15521	10.001071900515	153
0	15528	10.001071901515	154
0	16786	10.00116931038	155
0	16807	10.00116931338	156
0	16814	10.00116931438	157
0	16828	10.00116931638	158
0	16856	10.00116932038	159
0	16877	10.00116932338	160
0	16898	10.00116932638	161
0	16905	10.00116932738	162
0	16912	10.00116932838	163
0	16933	10.00116933138	164
0	16961	10.00116933538	165
0	16989	10.00116933938	166
0	17052	10.00116934838	167
0	17066	10.00116935038	168
0	18258	10.001266755245	169
0	18307	10.001266762245	170
0	18314	10.001266763245	171
0	18328	10.001266765245	172
0	18342	10.001266767245	173
0	18356	10.001266769245	174
0	18363	10.001266770245	175
0	18377	10.001266772245	176
0	18384	10.001266773245	177
0	18391	10.001266774245	178
0	18398	10.001266775245	179
0	18412	10.001266777245	180
0	18433	10.001266780245	181
0	18496	10.001266789245	182
0	18531	10.001266794245	183
0	19703	10.00136420011	184
0	19717	10.00136420211	185
0	19724	10.00136420311	186
0	19731	10.00136420411	187
0	19738	10.00136420511	188
0	19759	10.00136420811	189
0	19787	10.00136421211	190
0	19794	10.00136421311	191
0	19822	10.00136421711	192
0	19836	10.00136421911	193
0	19850	10.00136422111	194
0	19857	10.00136422211	195
0	19885	10.00136422611	196
0	19892	10.00136422711	197
0	19969	10.00136423811	198
0	21178	10.001461643975	199
0	21213	10.001461648975	200
0	21220	10.001461649975	201
0	21269	10.001461656975	202
0	21283	10.001461658975	203
0	21311	10.001461662975	204
0	21332	10.001461665975	205
0	21367	10.001461670975	206
0	21374	10.001461671975	207
0	21409	10.001461676975	208
0	21416	10.001461677975	209
0	21430	10.001461679975	210
0	21444	10.001461681975	211
0	22650	10.00155908584	212
0	22671	10.00155908884	213
0	22678	10.00155908984	214
0	22692	10.00155909184	215
0	22706	10.00155909384	216
0	22755	10.00155910084	217
0	22776	10.00155910384	218
0	22790	10.00155910584	219
0	22846	10.00155911384	220
0	22874	10.00155911784	221
0	22888	10.00155911984	222
0	22909	10.00155912284	223
0	22944	10.00155912784	224
0	24217	10.001656540705	225
0	24245	10.001656544705	226
0	24259	10.001656546705	227
0	24294	10.001656551705	228
0	24301	10.001656552705	229
0	24308	10.001656553705	230
0	24329	10.001656556705	231
0	24336	10.001656557705	232
0	24378	10.001656563705	233
0	24392	10.001656565705	234
0	24399	10.001656566705	235
0	24406	10.001656567705	236
0	25622	10.00175397457	237
0	25643	10.00175397757	238
0	25657	10.00175397957	239
0	25664	10.00175398057	240
0	25699	10.00175398557	241
0	25706	10.00175398657	242
0	25741	10.00175399157	243
0	25783	10.00175399757	244
0	25825	10.00175400357	245
0	25846	10.00175400657	246
0	25874	10.00175401057	247
0	25881	10.00175401157	248
0	25888	10.00175401257	249
0	27047	10.001851421435	250
0	27054	10.001851422435	251
0	27068	10.001851424435	252
0	27082	10.001851426435	253
0	27089	10.001851427435	254
0	27096	10.001851428435	255
0	27131	10.001851433435	256
0	27138	10.001851434435	257
0	27152	10.001851436435	258
0	27159	10.001851437435	259
0	27208	10.001851444435	260
0	27215	10.001851445435	261
0	27236	10.001851448435	262
0	27250	10.001851450435	263
0	27278	10.001851454435	264
0	27292	10.001851456435	265
0	27299	10.001851457435	266
0	27348	10.001851464435	267
0	28523	10.0019488683	268
0	28558	10.0019488733	269
0	28586	10.0019488773	270
0	28600	10.0019488793	271
0	28642	10.0019488853	272
0	28663	10.0019488883	273
0	28719	10.0019488963	274
0	28726	10.0019488973	275
0	28747	10.0019489003	276
0	28761	10.0019489023	277
0	28803	10.0019489083	278
0	29897	10.002046313165	279
0	29904	10.002046314165	280
0	29946	10.002046320165	281
0	29960	10.002046322165	282
0	29988	10.002046326165	283
0	29995	10.002046327165	284
0	30002	10.002046328165	285
0	30037	10.002046333165	286
0	30079	10.002046339165	287
0	30086	10.002046340165	288
0	30100	10.002046342165	289
0	30107	10.002046343165	290
0	30135	10.002046347165	291
0	30142	10.002046348165	292
0	30149	10.002046349165	293
0	30156	10.002046350165	294
0	30163	10.002046351165	295
0	30177	10.002046353165	296
0	31302	10.00214375603	297
0	31309	10.00214375703	298
0	31316	10.00214375803	299
0	31323	10.00214375903	300
0	31344	10.00214376203	301
0	31351	10.00214376303	302
0	31358	10.00214376403	303
0	31365	10.00214376503	304
0	31372	10.00214376603	305
0	31386	10.00214376803	306
0	31393	10.00214376903	307
0	31400	10.00214377003	308
0	31435	10.00214377503	309
0	31449	10.00214377703	310
0	31470	10.00214378003	311
0	31519	10.00214378703	312
0	31547	10.00214379103	313
0	31561	10.00214379303	314
0	32779	10.002241194895	315
0	32786	10.002241195895	316
0	32793	10.002241196895	317
0	32800	10.002241197895	318
0	32821	10.002241200895	319
0	32877	10.002241208895	320
0	32898	10.002241211895	321
0	32919	10.002241214895	322
0	32926	10.002241215895	323
0	32947	10.002241218895	324
0	32996	10.002241225895	325
0	33003	10.002241226895	326
0	33017	10.002241228895	327
0	34291	10.00233863376	328
0	34298	10.00233863476	329
0	34305	10.00233863576	330
0	34312	10.00233863676	331
0	34319	10.00233863776	332
0	34333	10.00233863976	333
0	34361	10.00233864376	334
0	34410	10.00233865076	335
0	34424	10.00233865276	336
0	34508	10.00233866476	337
0	34543	10.00233866976	338
0	35794	10.002436072625	339
0	35815	10.002436075625	340
0	35843	10.002436079625	341
0	35857	10.002436081625	342
0	35892	10.002436086625	343
0	35941	10.002436093625	344
0	35976	10.002436098625	345
0	35983	10.002436099625	346
0	35997	10.002436101625	347
0	36025	10.002436105625	348
0	36053	10.002436109625	349
0	36074	10.002436112625	350
0	36088	10.002436114625	351
0	37268	10.00253351849	352
0	37275	10.00253351949	353
0	37282	10.00253352049	354
0	37289	10.00253352149	355
0	37303	10.00253352349	356
0	37310	10.00253352449	357
0	37317	10.00253352549	358
0	37324	10.00253352649	359
0	37331	10.00253352749	360
0	37352	10.00253353049	361
0	37380	10.00253353449	362
0	37387	10.00253353549	363
0	37422	10.00253354049	364
0	37436	10.00253354249	365
0	37471	10.00253354749	366
0	37506	10.00253355249	367
0	37555	10.00253355949	368
0	38734	10.002630960355	369
0	38762	10.002630964355	370
0	38769	10.002630965355	371
0	38790	10.002630968355	372
0	38818	10.002630972355	373
0	38839	10.002630975355	374
0	38860	10.002630978355	375
0	38881	10.002630981355	376
0	38888	10.002630982355	377
0	38895	10.002630983355	378
0	38909	10.002630985355	379
0	38916	10.002630986355	380
0	38944	10.002630990355	381
0	38958	10.002630992355	382
0	38986	10.002630996355	383
0	39021	10.002631001355	384
0	40244	10.00272840922	385
0	40279	10.00272841422	386
0	40300	10.00272841722	387
0	40328	10.00272842122	388
0	40342	10.00272842322	389
0	40370	10.00272842722	390
0	40405	10.00272843222	391
0	40412	10.00272843322	392
0	40475	10.00272844222	393
0	40482	10.00272844322	394
0	41659	10.002825845085	395
0	41708	10.002825852085	396
0	41722	10.002825854085	397
0	41729	10.002825855085	398
0	41778	10.002825862085	399
0	41792	10.002825864085	400
0	41806	10.002825866085	401
0	41813	10.002825867085	402
0	41820	10.002825868085	403
0	41834	10.002825870085	404
0	41855	10.002825873085	405
0	41904	10.002825880085	406
0	41918	10.002825882085	407
0	41925	10.002825883085	408
0	41946	10.002825886085	409
0	41967	10.002825889085	410
0	43142	10.00292329095	411
0	43149	10.00292329195	412
0	43170	10.00292329495	413
0	43226	10.00292330295	414
0	43233	10.00292330395	415
0	43240	10.00292330495	416
0	43247	10.00292330595	417
0	43303	10.00292331395	418
0	43317	10.00292331595	419
0	43345	10.00292331995	420
0	43359	10.00292332195	421
0	43373	10.00292332395	422
0	43394	10.00292332695	423
0	43401	10.00292332795	424
0	44626	10.003020738815	425
0	44633	10.003020739815	426
0	44647	10.003020741815	427
0	44668	10.003020744815	428
0	44717	10.003020751815	429
0	44745	10.003020755815	430
0	44752	10.003020756815	431
0	44773	10.003020759815	432
0	44780	10.003020760815	433
0	44794	10.003020762815	434
0	44801	10.003020763815	435
0	44843	10.003020769815	436
0	44850	10.003020770815	437
0	44857	10.003020771815	438
0	46041	10.00311818168	439
0	46048	10.00311818268	440
0	46132	10.00311819468	441
0	46139	10.00311819568	442
0	46181	10.00311820168	443
0	46195	10.00311820368	444
0	46230	10.00311820868	445
0	46244	10.00311821068	446
0	46293	10.00311821768	447
0	47401	10.003215618545	448
0	47436	10.003215623545	449
0	47450	10.003215625545	450
0	47492	10.003215631545	451
0	47506	10.003215633545	452
0	47541	10.003215638545	453
0	47555	10.003215640545	454
0	47569	10.003215642545	455
0	47576	10.003215643545	456
0	47583	10.003215644545	457
0	47590	10.003215645545	458
0	47604	10.003215647545	459
0	47618	10.003215649545	460
0	47639	10.003215652545	461
0	47646	10.003215653545	462
0	48933	10.00331306241	463
0	48982	10.00331306941	464
0	48989	10.00331307041	465
0	48996	10.00331307141	466
0	49052	10.00331307941	467
0	49059	10.00331308041	468
0	49080	10.00331308341	469
0	49094	10.00331308541	470
0	49108	10.00331308741	471
0	49206	10.00331310141	472
0	49213	10.00331310241	473
0	49227	10.00331310441	474
0	50384	10.003410507275	475
0	50398	10.003410509275	476
0	50405	10.003410510275	477
0	50412	10.003410511275	478
0	50426	10.003410513275	479
0	50433	10.003410514275	480
0	50440	10.003410515275	481
0	50447	10.003410516275	482
0	50468	10.003410519275	483
0	50482	10.003410521275	484
0	50510	10.003410525275	485
0	50524	10.003410527275	486
0	50601	10.003410538275	487
0	50608	10.003410539275	488
0	50615	10.003410540275	489
0	50629	10.003410542275	490
0	50685	10.003410550275	491
0	51825	10.00350795114	492
0	51839	10.00350795314	493
0	51846	10.00350795414	494
0	51853	10.00350795514	495
0	51867	10.00350795714	496
0	51916	10.00350796414	497
0	51937	10.00350796714	498
0	51951	10.00350796914	499
0	51958	10.00350797014	500
0	51965	10.00350797114	501
0	51979	10.00350797314	502
0	52070	10.00350798614	503
0	52077	10.00350798714	504
0	52091	10.00350798914	505
0	52119	10.00350799314	506
0	53266	10.003605397005	507
0	53287	10.003605400005	508
0	53329	10.003605406005	509
0	53350	10.003605409005	510
0	53371	10.003605412005	511
0	53413	10.003605418005	512
0	53455	10.003605424005	513
0	53469	10.003605426005	514
0	53476	10.003605427005	515
0	53497	10.003605430005	516
0	53539	10.003605436005	517
0	54654	10.00370283987	518
0	54710	10.00370284787	519
0	54731	10.00370285087	520
0	54773	10.00370285687	521
0	54801	10.00370286087	522
0	54815	10.00370286287	523
0	54857	10.00370286887	524
0	56037	10.003800282735	525
0	56065	10.003800286735	526
0	56072	10.003800287735	527
0	56121	10.003800294735	528
0	56128	10.003800295735	529
0	56142	10.003800297735	530
0	56156	10.003800299735	531
0	56163	10.003800300735	532
0	56198	10.003800305735	533
0	56219	10.003800308735	534
0	56247	10.003800312735	535
0	56275	10.003800316735	536
0	56289	10.003800318735	537
0	56303	10.003800320735	538
0	56310	10.003800321735	539
0	56317	10.003800322735	540
0	56324	10.003800323735	541
0	56331	10.003800324735	542
0	56359	10.003800328735	543
0	57504	10.0038977296	544
0	57511	10.0038977306	545
0	57518	10.0038977316	546
0	57532	10.0038977336	547
0	57553	10.0038977366	548
0	57560	10.0038977376	549
0	57567	10.0038977386	550
0	57595	10.0038977426	551
0	57637	10.0038977486	552
0	57651	10.0038977506	553
0	57665	10.0038977526	554
0	57686	10.0038977556	555
0	57693	10.0038977566	556
0	57714	10.0038977596	557
0	57756	10.0038977656	558
0	57763	10.0038977666	559
0	57798	10.0038977716	560
0	59088	10.003995180465	561
0	59102	10.003995182465	562
0	59116	10.003995184465	563
0	59130	10.003995186465	564
0	59214	10.003995198465	565
0	59221	10.003995199465	566
0	59277	10.003995207465	567
0	60399	10.00409261833	568
0	60434	10.00409262333	569
0	60441	10.00409262433	570
0	60448	10.00409262533	571
0	60455	10.00409262633	572
0	60518	10.00409263533	573
0	60539	10.00409263833	574
0	60546	10.00409263933	575
0	60560	10.00409264133	576
0	60595	10.00409264633	577
0	60602	10.00409264733	578
0	60637	10.00409265233	579
0	60658	10.00409265533	580
0	60686	10.00409265933	581
0	61884	10.004190070195	582
0	61905	10.004190073195	583
0	61919	10.004190075195	584
0	61926	10.004190076195	585
0	61947	10.004190079195	586
0	61968	10.004190082195	587
0	61982	10.004190084195	588
0	62010	10.004190088195	589
0	62017	10.004190089195	590
0	62045	10.004190093195	591
0	62059	10.004190095195	592
0	62080	10.004190098195	593
0	62094	10.004190100195	594
0	62115	10.004190103195	595
0	62122	10.004190104195	596
0	63251	10.00428750906	597
0	63265	10.00428751106	598
0	63272	10.00428751206	599
0	63286	10.00428751406	600
0	63300	10.00428751606	601
0	63307	10.00428751706	602
0	63314	10.00428751806	603
0	63321	10.00428751906	604
0	63335	10.00428752106	605
0	63342	10.00428752206	606
0	63349	10.00428752306	607
0	63370	10.00428752606	608
0	63391	10.00428752906	609
0	63405	10.00428753106	610
0	63426	10.00428753406	611
0	63440	10.00428753606	612
0	63447	10.00428753706	613
0	63468	10.00428754006	614
0	64659	10.004384951925	615
0	64666	10.004384952925	616
0	64680	10.004384954925	617
0	64694	10.004384956925	618
0	64722	10.004384960925	619
0	64806	10.004384972925	620
0	64827	10.004384975925	621
0	64834	10.004384976925	622
0	64841	10.004384977925	623
0	64869	10.004384981925	624
0	64876	10.004384982925	625
0	64890	10.004384984925	626
0	64897	10.004384985925	627
0	66022	10.00448238679	628
0	66064	10.00448239279	629
0	66106	10.00448239879	630
0	66113	10.00448239979	631
0	66127	10.00448240179	632
0	66155	10.00448240579	633
0	66162	10.00448240679	634
0	66183	10.00448240979	635
0	66190	10.00448241079	636
0	66197	10.00448241179	637
0	66246	10.00448241879	638
0	67440	10.004579823655	639
0	67461	10.004579826655	640
0	67475	10.004579828655	641
0	67496	10.004579831655	642
0	67545	10.004579838655	643
0	67552	10.004579839655	644
0	67566	10.004579841655	645
0	67580	10.004579843655	646
0	67615	10.004579848655	647
0	67664	10.004579855655	648
0	67671	10.004579856655	649
0	67678	10.004579857655	650
0	67699	10.004579860655	651
0	68912	10.00467726752	652
0	68926	10.00467726952	653
0	68968	10.00467727552	654
0	69038	10.00467728552	655
0	69052	10.00467728752	656
0	69066	10.00467728952	657
0	69080	10.00467729152	658
0	69087	10.00467729252	659
0	69129	10.00467729852	660
0	70393	10.004774705385	661
0	70414	10.004774708385	662
0	70463	10.004774715385	663
0	70505	10.004774721385	664
0	70547	10.004774727385	665
0	70554	10.004774728385	666
0	70596	10.004774734385	667
0	70603	10.004774735385	668
0	70610	10.004774736385	669
0	70631	10.004774739385	670
0	70645	10.004774741385	671
0	71789	10.00487214425	672
0	71838	10.00487215125	673
0	71852	10.00487215325	674
0	71873	10.00487215625	675
0	71880	10.00487215725	676
0	71901	10.00487216025	677
0	71936	10.00487216525	678
0	71943	10.00487216625	679
0	71957	10.00487216825	680
0	71964	10.00487216925	681
0	71985	10.00487217225	682
0	71999	10.00487217425	683
0	72006	10.00487217525	684
0	72013	10.00487217625	685
0	72027	10.00487217825	686
0	72090	10.00487218725	687
0	73295	10.004969594115	688
0	73337	10.004969600115	689
0	73351	10.004969602115	690
0	73365	10.004969604115	691
0	73372	10.004969605115	692
0	73393	10.004969608115	693
0	73414	10.004969611115	694
0	73421	10.004969612115	695
0	73428	10.004969613115	696
0	73463	10.004969618115	697
0	73491	10.004969622115	698
0	73498	10.004969623115	699
0	73512	10.004969625115	700
0	73526	10.004969627115	701
0	73540	10.004969629115	702
0	73554	10.004969631115	703
0	74767	10.00506703598	704
0	74774	10.00506703698	705
0	74788	10.00506703898	706
0	74795	10.00506703998	707
0	74816	10.00506704298	708
0	74851	10.00506704798	709
0	74893	10.00506705398	710
0	74900	10.00506705498	711
0	74914	10.00506705698	712
0	74942	10.00506706098	713
0	74949	10.00506706198	714
0	74963	10.00506706398	715
0	74970	10.00506706498	716
0	74984	10.00506706698	717
0	75005	10.00506706998	718
0	75026	10.00506707298	719
0	76188	10.005164473845	720
0	76195	10.005164474845	721
0	76216	10.005164477845	722
0	76300	10.005164489845	723
0	76307	10.005164490845	724
0	76321	10.005164492845	725
0	76335	10.005164494845	726
0	76342	10.005164495845	727
0	76356	10.005164497845	728
0	76377	10.005164500845	729
0	76412	10.005164505845	730
0	76440	10.005164509845	731
0	76447	10.005164510845	732
0	76468	10.005164513845	733
0	76475	10.005164514845	734
0	77659	10.00526192071	735
0	77666	10.00526192171	736
0	77673	10.00526192271	737
0	77680	10.00526192371	738
0	77694	10.00526192571	739
0	77764	10.00526193571	740
0	77778	10.00526193771	741
0	77785	10.00526193871	742
0	77799	10.00526194071	743
0	77820	10.00526194371	744
0	77855	10.00526194871	745
0	77869	10.00526195071	746
0	77883	10.00526195271	747
0	77904	10.00526195571	748
0	79083	10.005359357575	749
0	79104	10.005359360575	750
0	79111	10.005359361575	751
0	79118	10.005359362575	752
0	79132	10.005359364575	753
0	79146	10.005359366575	754
0	79153	10.005359367575	755
0	79181	10.005359371575	756
0	79202	10.005359374575	757
0	79230	10.005359378575	758
0	79237	10.005359379575	759
0	79251	10.005359381575	760
0	79265	10.005359383575	761
0	79321	10.005359391575	762
0	79342	10.005359394575	763
0	80535	10.00545679744	764
0	80542	10.00545679844	765
0	80563	10.00545680144	766
0	80577	10.00545680344	767
0	80584	10.00545680444	768
0	80612	10.00545680844	769
0	80633	10.00545681144	770
0	80661	10.00545681544	771
0	80675	10.00545681744	772
0	80689	10.00545681944	773
0	80717	10.00545682344	774
0	80724	10.00545682444	775
0	80731	10.00545682544	776
0	80738	10.00545682644	777
0	80745	10.00545682744	778
0	80801	10.00545683544	779
0	82058	10.005554244305	780
0	82065	10.005554245305	781
0	82072	10.005554246305	782
0	82093	10.005554249305	783
0	82121	10.005554253305	784
0	82128	10.005554254305	785
0	82135	10.005554255305	786
0	82142	10.005554256305	787
0	82198	10.005554264305	788
0	82226	10.005554268305	789
0	83512	10.00565167817	790
0	83526	10.00565168017	791
0	83540	10.00565168217	792
0	83554	10.00565168417	793
0	83561	10.00565168517	794
0	83575	10.00565168717	795
0	83596	10.00565169017	796
0	83603	10.00565169117	797
0	83617	10.00565169317	798
0	83638	10.00565169617	799
0	83673	10.00565170117	800
0	83694	10.00565170417	801
0	83708	10.00565170617	802
0	83715	10.00565170717	803
0	83757	10.00565171317	804
0	83771	10.00565171517	805
0	85008	10.005749123035	806
0	85015	10.005749124035	807
0	85078	10.005749133035	808
0	85085	10.005749134035	809
0	85099	10.005749136035	810
0	85127	10.005749140035	811
0	85155	10.005749144035	812
0	85169	10.005749146035	813
0	85176	10.005749147035	814
0	85211	10.005749152035	815
0	86396	10.0058465589	816
0	86410	10.0058465609	817
0	86417	10.0058465619	818
0	86501	10.0058465739	819
0	86508	10.0058465749	820
0	86515	10.0058465759	821
0	86578	10.0058465849	822
0	86585	10.0058465859	823
0	86592	10.0058465869	824
0	87854	10.005944006765	825
0	87868	10.005944008765	826
0	87875	10.005944009765	827
0	87882	10.005944010765	828
0	87896	10.005944012765	829
0	87903	10.005944013765	830
0	87917	10.005944015765	831
0	87966	10.005944022765	832
0	87987	10.005944025765	833
0	87994	10.005944026765	834
0	88008	10.005944028765	835
0	88029	10.005944031765	836
0	88043	10.005944033765	837
0	88071	10.005944037765	838
0	88085	10.005944039765	839
0	89278	10.00604145263	840
0	89285	10.00604145363	841
0	89299	10.00604145563	842
0	89334	10.00604146063	843
0	89348	10.00604146263	844
0	89355	10.00604146363	845
0	89362	10.00604146463	846
0	89369	10.00604146563	847
0	89383	10.00604146763	848
0	89404	10.00604147063	849
0	89418	10.00604147263	850
0	89460	10.00604147863	851
0	89474	10.00604148063	852
0	89488	10.00604148263	853
0	89502	10.00604148463	854
0	89509	10.00604148563	855
0	90637	10.006138889495	856
0	90658	10.006138892495	857
0	90686	10.006138896495	858
0	90693	10.006138897495	859
0	90721	10.006138901495	860
0	90742	10.006138904495	861
0	90749	10.006138905495	862
0	90798	10.006138912495	863
0	90812	10.006138914495	864
0	90819	10.006138915495	865
0	90847	10.006138919495	866
0	90861	10.006138921495	867
0	90875	10.006138923495	868
0	90896	10.006138926495	869
0	90910	10.006138928495	870
0	92004	10.00623633036	871
0	92018	10.00623633236	872
0	92025	10.00623633336	873
0	92046	10.00623633636	874
0	92060	10.00623633836	875
0	92067	10.00623633936	876
0	92081	10.00623634136	877
0	92137	10.00623634936	878
0	92144	10.00623635036	879
0	92151	10.00623635136	880
0	92165	10.00623635336	881
0	92193	10.00623635736	882
0	92207	10.00623635936	883
0	92214	10.00623636036	884
0	92228	10.00623636236	885
0	92256	10.00623636636	886
0	93444	10.006333769225	887
0	93458	10.006333771225	888
0	93486	10.006333775225	889
0	93556	10.006333785225	890
0	93563	10.006333786225	891
0	93591	10.006333790225	892
0	93598	10.006333791225	893
0	93640	10.006333797225	894
0	93675	10.006333802225	895
0	94893	10.00643120509	896
0	94914	10.00643120809	897
0	94935	10.00643121109	898
0	94949	10.00643121309	899
0	95005	10.00643122109	900
0	95019	10.00643122309	901
0	95040	10.00643122609	902
0	95047	10.00643122709	903
0	95061	10.00643122909	904
0	95068	10.00643123009	905
0	95075	10.00643123109	906
0	95089	10.00643123309	907
0	95096	10.00643123409	908
0	95110	10.00643123609	909
0	95124	10.00643123809	910
0	96386	10.006528643955	911
0	96393	10.006528644955	912
0	96400	10.006528645955	913
0	96414	10.006528647955	914
0	96442	10.006528651955	915
0	96470	10.006528655955	916
0	96498	10.006528659955	917
0	96526	10.006528663955	918
0	96533	10.006528664955	919
0	96540	10.006528665955	920
0	96561	10.006528668955	921
0	96568	10.006528669955	922
0	96582	10.006528671955	923
0	96617	10.006528676955	924
0	96652	10.006528681955	925
0	97859	10.00662608482	926
0	97929	10.00662609482	927
0	97936	10.00662609582	928
0	97971	10.00662610082	929
0	97985	10.00662610282	930
0	98013	10.00662610682	931
0	98020	10.00662610782	932
0	98027	10.00662610882	933
0	98062	10.00662611382	934
0	98069	10.00662611482	935
0	98076	10.00662611582	936
0	98083	10.00662611682	937
0	98111	10.00662612082	938
0	99340	10.006723531685	939
0	99375	10.006723536685	940
0	99382	10.006723537685	941
0	99403	10.006723540685	942
0	99417	10.006723542685	943
0	99445	10.006723546685	944
0	99452	10.006723547685	945
0	99473	10.006723550685	946
0	99543	10.006723560685	947
0	99557	10.006723562685	948
0	100759	10.00682096955	949
0	100766	10.00682097055	950
0	100801	10.00682097555	951
0	100815	10.00682097755	952
0	100843	10.00682098155	953
0	100857	10.00682098355	954
0	100906	10.00682099055	955
0	100920	10.00682099255	956
0	100934	10.00682099455	957
0	100955	10.00682099755	958
0	100983	10.00682100155	959
0	101011	10.00682100555	960
0	102191	10.006918408415	961
0	102205	10.006918410415	962
0	102233	10.006918414415	963
0	102240	10.006918415415	964
0	102247	10.006918416415	965
0	102254	10.006918417415	966
0	102261	10.006918418415	967
0	102275	10.006918420415	968
0	102282	10.006918421415	969
0	102303	10.006918424415	970
0	102317	10.006918426415	971
0	102324	10.006918427415	972
0	102366	10.006918433415	973
0	102373	10.006918434415	974
0	102387	10.006918436415	975
0	102394	10.006918437415	976
0	102457	10.006918446415	977
0	102464	10.006918447415	978
0	103712	10.00701585028	979
0	103719	10.00701585128	980
0	103733	10.00701585328	981
0	103747	10.00701585528	982
0	103761	10.00701585728	983
0	103789	10.00701586128	984
0	103845	10.00701586928	985
0	103880	10.00701587428	986
0	103922	10.00701588028	987
0	103943	10.00701588328	988
0	103950	10.00701588428	989
0	103978	10.00701588828	990
0	103985	10.00701588928	991
0	105143	10.007113296145	992
0	105157	10.007113298145	993
0	105171	10.007113300145	994
0	105192	10.007113303145	995
0	105199	10.007113304145	996
0	105206	10.007113305145	997
0	105213	10.007113306145	998
0	105234	10.007113309145	999
0	105241	10.007113310145	1000
0	105248	10.007113311145	1001
0	105297	10.007113318145	1002
0	105304	10.007113319145	1003
0	105374	10.007113329145	1004
0	105381	10.007113330145	1005
0	105388	10.007113331145	1006
0	106597	10.00721073601	1007
0	106604	10.00721073701	1008
0	106625	10.00721074001	1009
0	106653	10.00721074401	1010
0	106681	10.00721074801	1011
0	106702	10.00721075101	1012
0	106751	10.00721075801	1013
0	106800	10.00721076501	1014
0	106814	10.00721076701	1015
0	106821	10.00721076801	1016
0	106835	10.00721077001	1017
0	107922	10.007308174875	1018
0	107943	10.007308177875	1019
0	107964	10.007308180875	1020
0	107971	10.007308181875	1021
0	107978	10.007308182875	1022
0	108062	10.007308194875	1023
0	108069	10.007308195875	1024
0	108118	10.007308202875	1025
0	108153	10.007308207875	1026
0	109285	10.00740561474	1027
0	109292	10.00740561574	1028
0	109306	10.00740561774	1029
0	109397	10.00740563074	1030
0	109404	10.00740563174	1031
0	109411	10.00740563274	1032
0	109453	10.00740563874	1033
0	109460	10.00740563974	1034
0	109502	10.00740564574	1035
0	109530	10.00740564974	1036
0	109537	10.00740565074	1037
0	109565	10.00740565474	1038
0	110740	10.007503055605	1039
0	110754	10.007503057605	1040
0	110796	10.007503063605	1041
0	110866	10.007503073605	1042
0	110894	10.007503077605	1043
0	110922	10.007503081605	1044
0	110936	10.007503083605	1045
0	110950	10.007503085605	1046
0	111013	10.007503094605	1047
0	112175	10.00760049747	1048
0	112189	10.00760049947	1049
0	112217	10.00760050347	1050
0	112224	10.00760050447	1051
0	112252	10.00760050847	1052
0	112259	10.00760050947	1053
0	112266	10.00760051047	1054
0	112273	10.00760051147	1055
0	112294	10.00760051447	1056
0	112308	10.00760051647	1057
0	112322	10.00760051847	1058
0	112364	10.00760052447	1059
0	112413	10.00760053147	1060
0	112420	10.00760053247	1061
0	112441	10.00760053547	1062
0	113664	10.007697944335	1063
0	113692	10.007697948335	1064
0	113699	10.007697949335	1065
0	113713	10.007697951335	1066
0	113720	10.007697952335	1067
0	113727	10.007697953335	1068
0	113741	10.007697955335	1069
0	113776	10.007697960335	1070
0	113783	10.007697961335	1071
0	113790	10.007697962335	1072
0	113818	10.007697966335	1073
0	113825	10.007697967335	1074
0	113846	10.007697970335	1075
0	113888	10.007697976335	1076
0	113909	10.007697979335	1077
0	113916	10.007697980335	1078
0	113944	10.007697984335	1079
0	115070	10.0077953872	1080
0	115105	10.0077953922	1081
0	115154	10.0077953992	1082
0	115161	10.0077954002	1083
0	115182	10.0077954032	1084
0	115203	10.0077954062	1085
0	115231	10.0077954102	1086
0	115245	10.0077954122	1087
0	115259	10.0077954142	1088
0	115266	10.0077954152	1089
0	115273	10.0077954162	1090
0	115294	10.0077954192	1091
0	115343	10.0077954262	1092
0	115357	10.0077954282	1093
0	116492	10.007892830065	1094
0	116513	10.007892833065	1095
0	116520	10.007892834065	1096
0	116555	10.007892839065	1097
0	116562	10.007892840065	1098
0	116569	10.007892841065	1099
0	116590	10.007892844065	1100
0	116604	10.007892846065	1101
0	116611	10.007892847065	1102
0	116625	10.007892849065	1103
0	116646	10.007892852065	1104
0	116674	10.007892856065	1105
0	116695	10.007892859065	1106
0	116702	10.007892860065	1107
0	116709	10.007892861065	1108
0	116723	10.007892863065	1109
0	116744	10.007892866065	1110
0	116758	10.007892868065	1111
0	117892	10.00799026993	1112
0	117927	10.00799027493	1113
0	117948	10.00799027793	1114
0	118004	10.00799028593	1115
0	118025	10.00799028893	1116
0	118032	10.00799028993	1117
0	118060	10.00799029393	1118
0	118067	10.00799029493	1119
0	118074	10.00799029593	1120
0	118095	10.00799029893	1121
0	118130	10.00799030393	1122
0	118144	10.00799030593	1123
0	119277	10.008087709795	1124
0	119298	10.008087712795	1125
0	119312	10.008087714795	1126
0	119347	10.008087719795	1127
0	119382	10.008087724795	1128
0	119389	10.008087725795	1129
0	119424	10.008087730795	1130
0	119438	10.008087732795	1131
0	119445	10.008087733795	1132
0	119452	10.008087734795	1133
0	119459	10.008087735795	1134
0	119501	10.008087741795	1135
0	120689	10.00818514466	1136
0	120738	10.00818515166	1137
0	120752	10.00818515366	1138
0	120759	10.00818515466	1139
0	120773	10.00818515666	1140
0	120801	10.00818516066	1141
0	120808	10.00818516166	1142
0	120857	10.00818516866	1143
0	120892	10.00818517366	1144
0	120899	10.00818517466	1145
0	120913	10.00818517666	1146
0	120920	10.00818517766	1147
0	120927	10.00818517866	1148
0	120941	10.00818518066	1149
0	122091	10.008282586525	1150
0	122105	10.008282588525	1151
0	122140	10.008282593525	1152
0	122182	10.008282599525	1153
0	122217	10.008282604525	1154
0	122245	10.008282608525	1155
0	122252	10.008282609525	1156
0	122259	10.008282610525	1157
0	122280	10.008282613525	1158
0	122287	10.008282614525	1159
0	122294	10.008282615525	1160
0	122315	10.008282618525	1161
0	123508	10.00838002239	1162
0	123529	10.00838002539	1163
0	123536	10.00838002639	1164
0	123550	10.00838002839	1165
0	123592	10.00838003439	1166
0	123606	10.00838003639	1167
0	123669	10.00838004539	1168
0	123676	10.00838004639	1169
0	123690	10.00838004839	1170
0	123697	10.00838004939	1171
0	123704	10.00838005039	1172
0	123725	10.00838005339	1173
0	124874	10.008477457255	1174
0	124895	10.008477460255	1175
0	124902	10.008477461255	1176
0	124909	10.008477462255	1177
0	124916	10.008477463255	1178
0	124923	10.008477464255	1179
0	124937	10.008477466255	1180
0	124958	10.008477469255	1181
0	124979	10.008477472255	1182
0	125035	10.008477480255	1183
0	125042	10.008477481255	1184
0	125098	10.008477489255	1185
0	125105	10.008477490255	1186
0	125112	10.008477491255	1187
0	125126	10.008477493255	1188
0	126279	10.00857489412	1189
0	126314	10.00857489912	1190
0	126342	10.00857490312	1191
0	126349	10.00857490412	1192
0	126356	10.00857490512	1193
0	126398	10.00857491112	1194
0	126412	10.00857491312	1195
0	126426	10.00857491512	1196
0	126433	10.00857491612	1197
0	126440	10.00857491712	1198
0	126482	10.00857492312	1199
0	126489	10.00857492412	1200
0	126503	10.00857492612	1201
0	126524	10.00857492912	1202
0	126531	10.00857493012	1203
0	127760	10.008672334985	1204
0	127788	10.008672338985	1205
0	127795	10.008672339985	1206
0	127809	10.008672341985	1207
0	127823	10.008672343985	1208
0	127844	10.008672346985	1209
0	127879	10.008672351985	1210
0	127886	10.008672352985	1211
0	127907	10.008672355985	1212
0	129153	10.00876976785	1213
0	129169	10.00876976985	1214
0	129212	10.00876977585	1215
0	129240	10.00876977985	1216
0	129268	10.00876978385	1217
0	129317	10.00876979085	1218
0	129345	10.00876979485	1219
0	129366	10.00876979785	1220
0	129373	10.00876979885	1221
0	129380	10.00876979985	1222
0	129394	10.00876980185	1223
0	130574	10.008867206715	1224
0	130616	10.008867209715	1225
0	130695	10.008867212715	1226
0	130703	10.008867213715	1227
0	130734	10.008867217715	1228
0	130741	10.008867218715	1229
0	130748	10.008867219715	1230
0	130776	10.008867223715	1231
0	130881	10.008867238715	1232
0	130888	10.008867239715	1233
0	130895	10.008867240715	1234
0	130909	10.008867242715	1235
0	132064	10.00896464858	1236
0	132078	10.00896464958	1237
0	132092	10.00896465058	1238
0	132106	10.00896465158	1239
0	132148	10.00896465458	1240
0	132162	10.00896465558	1241
0	132267	10.00896466258	1242
0	132281	10.00896466458	1243
0	132295	10.00896466658	1244
0	132309	10.00896466858	1245
0	132344	10.00896467358	1246
0	132365	10.00896467658	1247
0	132372	10.00896467758	1248
0	132379	10.00896467858	1249
0	132386	10.00896467958	1250
0	132407	10.00896468258	1251
0	132421	10.00896468458	1252
0	133544	10.009062090445	1253
0	133586	10.009062093445	1254
0	133600	10.009062094445	1255
0	133628	10.009062096445	1256
0	133642	10.009062097445	1257
0	133670	10.009062099445	1258
0	133712	10.009062102445	1259
0	133726	10.009062103445	1260
0	133785	10.009062105445	1261
0	133815	10.009062109445	1262
0	133836	10.009062112445	1263
0	133843	10.009062113445	1264
0	133864	10.009062116445	1265
0	133871	10.009062117445	1266
0	133878	10.009062118445	1267
0	133899	10.009062121445	1268
0	133906	10.009062122445	1269
0	133913	10.009062123445	1270
0	133934	10.009062126445	1271
0	133941	10.009062127445	1272
0	135062	10.00915953431	1273
0	135076	10.00915953531	1274
0	135090	10.00915953631	1275
0	135104	10.00915953731	1276
0	135146	10.00915954031	1277
0	135160	10.00915954131	1278
0	135230	10.00915954631	1279
0	135309	10.00915954931	1280
0	135340	10.00915955331	1281
0	135354	10.00915955531	1282
0	135361	10.00915955631	1283
0	135375	10.00915955831	1284
0	135403	10.00915956231	1285
0	135417	10.00915956431	1286
0	136452	10.009256971175	1287
0	136494	10.009256974175	1288
0	136508	10.009256975175	1289
0	136550	10.009256978175	1290
0	136578	10.009256980175	1291
0	136592	10.009256981175	1292
0	136634	10.009256984175	1293
0	136830	10.009256995175	1294
0	136838	10.009256996175	1295
0	136854	10.009256998175	1296
0	136861	10.009256999175	1297
0	136882	10.009257002175	1298
0	136896	10.009257004175	1299
0	136903	10.009257005175	1300
0	137912	10.00935441104	1301
0	137996	10.00935441704	1302
0	138010	10.00935441804	1303
0	138038	10.00935442004	1304
0	138066	10.00935442204	1305
0	138094	10.00935442404	1306
0	138178	10.00935443004	1307
0	138206	10.00935443204	1308
0	138234	10.00935443404	1309
0	138276	10.00935443704	1310
0	138326	10.00935443904	1311
0	138342	10.00935444104	1312
0	138358	10.00935444304	1313
0	139224	10.009451850905	1314
0	139238	10.009451851905	1315
0	139280	10.009451854905	1316
0	139322	10.009451857905	1317
0	139364	10.009451860905	1318
0	139378	10.009451861905	1319
0	139406	10.009451863905	1320
0	139602	10.009451877905	1321
0	140364	10.00954928377	1322
0	140461	10.00954928477	1323
0	140475	10.00954928577	1324
0	140489	10.00954928677	1325
0	140531	10.00954928977	1326
0	140573	10.00954929277	1327
0	140615	10.00954929577	1328
0	140629	10.00954929677	1329
0	140657	10.00954929877	1330
0	140699	10.00954930177	1331
0	140727	10.00954930377	1332
0	140769	10.00954930677	1333
0	140825	10.00954931077	1334
0	140909	10.00954931677	1335
0	141743	10.009646720635	1336
0	141771	10.009646724635	1337
0	141792	10.009646727635	1338
0	141806	10.009646729635	1339
0	142001	10.009646737635	1340
0	142085	10.009646743635	1341
0	142099	10.009646744635	1342
0	142113	10.009646745635	1343
0	142127	10.009646746635	1344
0	142211	10.009646752635	1345
0	143151	10.0097441575	1346
0	143186	10.0097441625	1347
0	143193	10.0097441635	1348
0	143200	10.0097441645	1349
0	143221	10.0097441675	1350
0	143235	10.0097441695	1351
0	143242	10.0097441705	1352
0	143256	10.0097441725	1353
0	143409	10.0097441765	1354
0	143423	10.0097441775	1355
0	143437	10.0097441785	1356
0	143465	10.0097441805	1357
0	143479	10.0097441815	1358
0	143521	10.0097441845	1359
0	143563	10.0097441875	1360
0	143577	10.0097441885	1361
0	143591	10.0097441895	1362
0	143605	10.0097441905	1363
0	144717	10.009841597365	1364
0	144759	10.009841603365	1365
0	144773	10.009841605365	1366
0	144857	10.009841617365	1367
0	144871	10.009841619365	1368
0	145057	10.009841623365	1369
0	145127	10.009841628365	1370
0	145141	10.009841629365	1371
0	145155	10.009841630365	1372
0	146243	10.00993903623	1373
0	146278	10.00993904123	1374
0	146334	10.00993904923	1375
0	146341	10.00993905023	1376
0	146376	10.00993905523	1377
0	146383	10.00993905623	1378
0	146411	10.00993906023	1379
0	146615	10.00993907023	1380
0	146671	10.00993907423	1381
0	147718	10.010036476095	1382
0	147746	10.010036480095	1383
0	147844	10.010036494095	1384
0	147872	10.010036498095	1385
0	147879	10.010036499095	1386
0	147914	10.010036504095	1387
0	147921	10.010036505095	1388
0	147928	10.010036506095	1389
0	147942	10.010036508095	1390
0	148103	10.010036513095	1391
0	148117	10.010036514095	1392
0	149238	10.01013392196	1393
0	149245	10.01013392296	1394
0	149252	10.01013392396	1395
0	149266	10.01013392596	1396
0	149287	10.01013392896	1397
0	149336	10.01013393596	1398
0	149371	10.01013394096	1399
0	149385	10.01013394296	1400
0	149392	10.01013394396	1401
0	149399	10.01013394496	1402
0	149406	10.01013394596	1403
0	149427	10.01013394896	1404
0	149448	10.01013395196	1405
0	149455	10.01013395296	1406
0	149462	10.01013395396	1407
0	149553	10.01013395496	1408
0	149595	10.01013395796	1409
0	149637	10.01013396096	1410
0	149679	10.01013396396	1411
0	149707	10.01013396596	1412
0	150736	10.010231370825	1413
0	150757	10.010231373825	1414
0	150771	10.010231375825	1415
0	150834	10.010231384825	1416
0	150869	10.010231389825	1417
0	150897	10.010231393825	1418
0	150918	10.010231396825	1419
0	150999	10.010231400825	1420
0	151083	10.010231406825	1421
0	152054	10.01032881269	1422
0	152089	10.01032881769	1423
0	152110	10.01032882069	1424
0	152152	10.01032882669	1425
0	152236	10.01032883869	1426
0	152278	10.01032884469	1427
0	152285	10.01032884569	1428
0	153430	10.010426251555	1429
0	153444	10.010426253555	1430
0	153465	10.010426256555	1431
0	153479	10.010426258555	1432
0	153493	10.010426260555	1433
0	153528	10.010426265555	1434
0	153549	10.010426268555	1435
0	153563	10.010426270555	1436
0	153570	10.010426271555	1437
0	153584	10.010426273555	1438
0	153591	10.010426274555	1439
0	153612	10.010426277555	1440
0	153633	10.010426280555	1441
0	153661	10.010426284555	1442
0	153668	10.010426285555	1443
0	154855	10.01052369042	1444
0	154862	10.01052369142	1445
0	154869	10.01052369242	1446
0	154876	10.01052369342	1447
0	154938	10.01052369542	1448
0	154945	10.01052369642	1449
0	154966	10.01052369942	1450
0	154994	10.01052370342	1451
0	155050	10.01052371142	1452
0	155057	10.01052371242	1453
0	155078	10.01052371542	1454
0	155085	10.01052371642	1455
0	155092	10.01052371742	1456
0	155134	10.01052372342	1457
0	155155	10.01052372642	1458
0	156378	10.010621132285	1459
0	156392	10.010621134285	1460
0	156399	10.010621135285	1461
0	156413	10.010621137285	1462
0	156434	10.010621140285	1463
0	156547	10.010621147285	1464
0	156568	10.010621150285	1465
0	156575	10.010621151285	1466
0	156624	10.010621158285	1467
0	156638	10.010621160285	1468
0	156645	10.010621161285	1469
0	156680	10.010621166285	1470
0	157835	10.01071856915	1471
0	157842	10.01071857015	1472
0	157877	10.01071857515	1473
0	157891	10.01071857715	1474
0	157912	10.01071858015	1475
0	157995	10.01071858515	1476
0	158086	10.01071859815	1477
0	158093	10.01071859915	1478
0	158100	10.01071860015	1479
0	158135	10.01071860515	1480
0	158142	10.01071860615	1481
0	158149	10.01071860715	1482
0	159304	10.010816012015	1483
0	159311	10.010816013015	1484
0	159374	10.010816022015	1485
0	159388	10.010816024015	1486
0	159395	10.010816025015	1487
0	159469	10.010816031015	1488
0	159490	10.010816034015	1489
0	159518	10.010816038015	1490
0	159588	10.010816048015	1491
0	159595	10.010816049015	1492
0	160725	10.01091345488	1493
0	160760	10.01091345988	1494
0	160767	10.01091346088	1495
0	160774	10.01091346188	1496
0	160781	10.01091346288	1497
0	160788	10.01091346388	1498
0	160795	10.01091346488	1499
0	160802	10.01091346588	1500
0	160816	10.01091346788	1501
0	160925	10.01091347888	1502
0	160967	10.01091348488	1503
0	160981	10.01091348688	1504
0	161037	10.01091349488	1505
0	161044	10.01091349588	1506
0	161051	10.01091349688	1507
0	162207	10.011010900745	1508
0	162235	10.011010904745	1509
0	162249	10.011010906745	1510
0	162270	10.011010909745	1511
0	162321	10.011010914745	1512
0	162335	10.011010916745	1513
0	162377	10.011010922745	1514
0	162405	10.011010926745	1515
0	162419	10.011010928745	1516
0	162461	10.011010934745	1517
0	162468	10.011010935745	1518
0	162517	10.011010942745	1519
0	163630	10.01110834361	1520
0	163644	10.01110834561	1521
0	163658	10.01110834761	1522
0	163686	10.01110835161	1523
0	163714	10.01110835561	1524
0	163721	10.01110835661	1525
0	163770	10.01110836361	1526
0	163791	10.01110836661	1527
0	163805	10.01110836861	1528
0	163812	10.01110836961	1529
0	163833	10.01110837261	1530
0	163882	10.01110837961	1531
0	163889	10.01110838061	1532
0	163903	10.01110838261	1533
0	163910	10.01110838361	1534
0	163917	10.01110838461	1535
0	165083	10.011205787475	1536
0	165090	10.011205788475	1537
0	165097	10.011205789475	1538
0	165104	10.011205790475	1539
0	165111	10.011205791475	1540
0	165153	10.011205797475	1541
0	165167	10.011205799475	1542
0	165181	10.011205801475	1543
0	165202	10.011205804475	1544
0	165209	10.011205805475	1545
0	165230	10.011205808475	1546
0	165265	10.011205813475	1547
0	165300	10.011205818475	1548
0	165314	10.011205820475	1549
0	165342	10.011205824475	1550
0	165349	10.011205825475	1551
0	165377	10.011205829475	1552
0	166615	10.01130323434	1553
0	166650	10.01130323934	1554
0	166657	10.01130324034	1555
0	166678	10.01130324334	1556
0	166685	10.01130324434	1557
0	166699	10.01130324634	1558
0	166706	10.01130324734	1559
0	166713	10.01130324834	1560
0	166783	10.01130325834	1561
0	166811	10.01130326234	1562
0	166825	10.01130326434	1563
0	166952	10.01130327134	1564
0	168117	10.011400677205	1565
0	168124	10.011400678205	1566
0	168159	10.011400683205	1567
0	168166	10.011400684205	1568
0	168215	10.011400691205	1569
0	168243	10.011400695205	1570
0	168250	10.011400696205	1571
0	168264	10.011400698205	1572
0	168271	10.011400699205	1573
0	168292	10.011400702205	1574
0	168299	10.011400703205	1575
0	168334	10.011400708205	1576
0	168355	10.011400711205	1577
0	168483	10.011400716205	1578
0	168497	10.011400717205	1579
0	168525	10.011400719205	1580
0	169636	10.01149812307	1581
0	169643	10.01149812407	1582
0	169657	10.01149812607	1583
0	169664	10.01149812707	1584
0	169699	10.01149813207	1585
0	169734	10.01149813707	1586
0	169741	10.01149813807	1587
0	169755	10.01149814007	1588
0	169762	10.01149814107	1589
0	169776	10.01149814307	1590
0	169790	10.01149814507	1591
0	169797	10.01149814607	1592
0	169811	10.01149814807	1593
0	169839	10.01149815207	1594
0	169950	10.01149815707	1595
0	169978	10.01149815907	1596
0	171135	10.011595566935	1597
0	171156	10.011595569935	1598
0	171170	10.011595571935	1599
0	171191	10.011595574935	1600
0	171212	10.011595577935	1601
0	171233	10.011595580935	1602
0	171275	10.011595586935	1603
0	171303	10.011595590935	1604
0	171310	10.011595591935	1605
0	171338	10.011595595935	1606
0	171352	10.011595597935	1607
0	171465	10.011595599935	1608
0	171493	10.011595601935	1609
0	171521	10.011595603935	1610
0	171549	10.011595605935	1611
0	171563	10.011595606935	1612
0	172654	10.0116930098	1613
0	172703	10.0116930168	1614
0	172766	10.0116930258	1615
0	172773	10.0116930268	1616
0	172801	10.0116930308	1617
0	172864	10.0116930398	1618
0	172871	10.0116930408	1619
0	173022	10.0116930458	1620
0	173064	10.0116930488	1621
0	174149	10.011790454665	1622
0	174170	10.011790457665	1623
0	174184	10.011790459665	1624
0	174191	10.011790460665	1625
0	174198	10.011790461665	1626
0	174219	10.011790464665	1627
0	174226	10.011790465665	1628
0	174240	10.011790467665	1629
0	174275	10.011790472665	1630
0	174289	10.011790474665	1631
0	174303	10.011790476665	1632
0	174324	10.011790479665	1633
0	174373	10.011790486665	1634
0	174380	10.011790487665	1635
0	174539	10.011790493665	1636
0	175771	10.01188790353	1637
0	175813	10.01188790953	1638
0	175827	10.01188791153	1639
0	175862	10.01188791653	1640
0	175876	10.01188791853	1641
0	175911	10.01188792353	1642
0	175918	10.01188792453	1643
0	175946	10.01188792853	1644
0	175953	10.01188792953	1645
0	175967	10.01188793153	1646
0	175974	10.01188793253	1647
0	176096	10.01188793453	1648
0	177231	10.011985341395	1649
0	177238	10.011985342395	1650
0	177259	10.011985345395	1651
0	177273	10.011985347395	1652
0	177280	10.011985348395	1653
0	177308	10.011985352395	1654
0	177315	10.011985353395	1655
0	177336	10.011985356395	1656
0	177350	10.011985358395	1657
0	177357	10.011985359395	1658
0	177364	10.011985360395	1659
0	177371	10.011985361395	1660
0	177378	10.011985362395	1661
0	177392	10.011985364395	1662
0	177413	10.011985367395	1663
0	177441	10.011985371395	1664
0	177448	10.011985372395	1665
0	177493	10.011985374395	1666
0	177521	10.011985376395	1667
0	177535	10.011985377395	1668
0	177605	10.011985382395	1669
0	178783	10.01208278726	1670
0	178825	10.01208279326	1671
0	178846	10.01208279626	1672
0	178867	10.01208279926	1673
0	178881	10.01208280126	1674
0	178895	10.01208280326	1675
0	178909	10.01208280526	1676
0	178930	10.01208280826	1677
0	178958	10.01208281226	1678
0	179046	10.01208281426	1679
0	179102	10.01208281826	1680
0	179116	10.01208281926	1681
0	179144	10.01208282126	1682
0	179186	10.01208282426	1683
0	179214	10.01208282626	1684
0	179228	10.01208282726	1685
0	180321	10.012180231125	1686
0	180328	10.012180232125	1687
0	180342	10.012180234125	1688
0	180377	10.012180239125	1689
0	180447	10.012180249125	1690
0	180571	10.012180256125	1691
0	180599	10.012180258125	1692
0	180613	10.012180259125	1693
0	180627	10.012180260125	1694
0	180641	10.012180261125	1695
0	180781	10.012180271125	1696
0	181795	10.01227767399	1697
0	181809	10.01227767599	1698
0	181816	10.01227767699	1699
0	181830	10.01227767899	1700
0	181851	10.01227768199	1701
0	181907	10.01227768999	1702
0	181921	10.01227769199	1703
0	181928	10.01227769299	1704
0	181935	10.01227769399	1705
0	182112	10.01227770399	1706
0	182140	10.01227770599	1707
0	182182	10.01227770899	1708
0	182210	10.01227771099	1709
0	183293	10.012375121855	1710
0	183307	10.012375123855	1711
0	183328	10.012375126855	1712
0	183370	10.012375132855	1713
0	183398	10.012375136855	1714
0	183412	10.012375138855	1715
0	183426	10.012375140855	1716
0	183579	10.012375146855	1717
0	183593	10.012375147855	1718
0	183607	10.012375148855	1719
0	183635	10.012375150855	1720
0	183649	10.012375151855	1721
0	183663	10.012375152855	1722
0	183747	10.012375158855	1723
0	183789	10.012375161855	1724
0	183803	10.012375162855	1725
0	184806	10.01247256472	1726
0	184820	10.01247256672	1727
0	184827	10.01247256772	1728
0	184848	10.01247257072	1729
0	184869	10.01247257372	1730
0	184883	10.01247257572	1731
0	184904	10.01247257872	1732
0	184939	10.01247258372	1733
0	184946	10.01247258472	1734
0	185054	10.01247258772	1735
0	185082	10.01247258972	1736
0	185096	10.01247259072	1737
0	185152	10.01247259472	1738
0	185278	10.01247260372	1739
0	185306	10.01247260572	1740
0	185334	10.01247260772	1741
0	186366	10.012570013585	1742
0	186373	10.012570014585	1743
0	186387	10.012570016585	1744
0	186415	10.012570020585	1745
0	186450	10.012570025585	1746
0	186464	10.012570027585	1747
0	186471	10.012570028585	1748
0	186631	10.012570034585	1749
0	186659	10.012570036585	1750
0	186715	10.012570040585	1751
0	186757	10.012570043585	1752
0	186827	10.012570048585	1753
0	186855	10.012570050585	1754
0	187883	10.01266745445	1755
0	187911	10.01266745845	1756
0	187946	10.01266746345	1757
0	187953	10.01266746445	1758
0	187967	10.01266746645	1759
0	187974	10.01266746745	1760
0	188016	10.01266747345	1761
0	188160	10.01266747745	1762
0	188188	10.01266747945	1763
0	188202	10.01266748045	1764
0	188244	10.01266748345	1765
0	188286	10.01266748645	1766
0	188300	10.01266748745	1767
0	188342	10.01266749045	1768
0	188370	10.01266749245	1769
0	188384	10.01266749345	1770
0	189453	10.012764898315	1771
0	189467	10.012764900315	1772
0	189488	10.012764903315	1773
0	189495	10.012764904315	1774
0	189509	10.012764906315	1775
0	189551	10.012764912315	1776
0	189558	10.012764913315	1777
0	189586	10.012764917315	1778
0	189705	10.012764919315	1779
0	189747	10.012764922315	1780
0	189775	10.012764924315	1781
0	189803	10.012764926315	1782
0	189817	10.012764927315	1783
0	189845	10.012764929315	1784
0	189915	10.012764934315	1785
0	189957	10.012764937315	1786
0	191006	10.01286234218	1787
0	191013	10.01286234318	1788
0	191055	10.01286234918	1789
0	191062	10.01286235018	1790
0	191069	10.01286235118	1791
0	191083	10.01286235318	1792
0	191097	10.01286235518	1793
0	191236	10.01286236218	1794
0	191292	10.01286236618	1795
0	191348	10.01286237018	1796
0	191418	10.01286237518	1797
0	191488	10.01286238018	1798
0	191502	10.01286238118	1799
0	192538	10.012959786045	1800
0	192559	10.012959789045	1801
0	192566	10.012959790045	1802
0	192650	10.012959802045	1803
0	192657	10.012959803045	1804
0	192671	10.012959805045	1805
0	192678	10.012959806045	1806
0	192787	10.012959807045	1807
0	192815	10.012959809045	1808
0	192829	10.012959810045	1809
0	192857	10.012959812045	1810
0	192871	10.012959813045	1811
0	192913	10.012959816045	1812
0	192955	10.012959819045	1813
0	192983	10.012959821045	1814
0	193011	10.012959823045	1815
0	193025	10.012959824045	1816
0	193053	10.012959826045	1817
0	193081	10.012959828045	1818
0	194124	10.01305722891	1819
0	194138	10.01305723091	1820
0	194159	10.01305723391	1821
0	194173	10.01305723591	1822
0	194201	10.01305723991	1823
0	194208	10.01305724091	1824
0	194222	10.01305724291	1825
0	194229	10.01305724391	1826
0	194250	10.01305724691	1827
0	194257	10.01305724791	1828
0	194354	10.01305724891	1829
0	194382	10.01305725091	1830
0	194396	10.01305725191	1831
0	194410	10.01305725291	1832
0	194424	10.01305725391	1833
0	194438	10.01305725491	1834
0	194452	10.01305725591	1835
0	194480	10.01305725791	1836
0	194494	10.01305725891	1837
0	194592	10.01305726591	1838
0	194606	10.01305726691	1839
0	194620	10.01305726791	1840
0	194648	10.01305726991	1841
0	194662	10.01305727091	1842
0	195720	10.013154673775	1843
0	195769	10.013154680775	1844
0	195783	10.013154682775	1845
0	195811	10.013154686775	1846
0	195818	10.013154687775	1847
0	195825	10.013154688775	1848
0	195969	10.013154692775	1849
0	195983	10.013154693775	1850
0	196011	10.013154695775	1851
0	196025	10.013154696775	1852
0	196039	10.013154697775	1853
0	196067	10.013154699775	1854
0	196081	10.013154700775	1855
0	196109	10.013154702775	1856
0	196123	10.013154703775	1857
0	196151	10.013154705775	1858
0	196179	10.013154707775	1859
0	197212	10.01325211264	1860
0	197226	10.01325211464	1861
0	197268	10.01325212064	1862
0	197324	10.01325212864	1863
0	197331	10.01325212964	1864
0	197526	10.01325214064	1865
0	197540	10.01325214164	1866
0	198574	10.013349550505	1867
0	198588	10.013349552505	1868
0	198609	10.013349555505	1869
0	198616	10.013349556505	1870
0	198637	10.013349559505	1871
0	198644	10.013349560505	1872
0	198658	10.013349562505	1873
0	198749	10.013349575505	1874
0	198763	10.013349577505	1875
0	198770	10.013349578505	1876
0	198784	10.013349580505	1877
0	198869	10.013349582505	1878
0	198883	10.013349583505	1879
0	198911	10.013349585505	1880
0	198953	10.013349588505	1881
0	200015	10.01344699637	1882
0	200057	10.01344700237	1883
0	200071	10.01344700437	1884
0	200099	10.01344700837	1885
0	200113	10.01344701037	1886
0	200120	10.01344701137	1887
0	200148	10.01344701537	1888
0	200162	10.01344701737	1889
0	201277	10.013544426235	1890
0	201291	10.013544428235	1891
0	201298	10.013544429235	1892
0	201369	10.013544430235	1893
0	201383	10.013544432235	1894
0	201425	10.013544438235	1895
0	201460	10.013544443235	1896
0	201523	10.013544452235	1897
0	201537	10.013544454235	1898
0	201544	10.013544455235	1899
0	201558	10.013544457235	1900
0	201565	10.013544458235	1901
0	202670	10.0136418641	1902
0	202712	10.0136418701	1903
0	202726	10.0136418721	1904
0	202733	10.0136418731	1905
0	202795	10.0136418751	1906
0	202809	10.0136418771	1907
0	202851	10.0136418831	1908
0	202865	10.0136418851	1909
0	202872	10.0136418861	1910
0	202879	10.0136418871	1911
0	202886	10.0136418881	1912
0	202942	10.0136418961	1913
0	202949	10.0136418971	1914
0	202956	10.0136418981	1915
0	204070	10.013739298965	1916
0	204077	10.013739299965	1917
0	204084	10.013739300965	1918
0	204098	10.013739302965	1919
0	204168	10.013739312965	1920
0	204175	10.013739313965	1921
0	204203	10.013739317965	1922
0	204217	10.013739319965	1923
0	204272	10.013739320965	1924
0	204307	10.013739325965	1925
0	204335	10.013739329965	1926
0	204356	10.013739332965	1927
0	204370	10.013739334965	1928
0	205527	10.01383674183	1929
0	205555	10.01383674583	1930
0	205597	10.01383675183	1931
0	205632	10.01383675683	1932
0	205639	10.01383675783	1933
0	205660	10.01383676083	1934
0	205667	10.01383676183	1935
0	205702	10.01383676683	1936
0	205787	10.01383676983	1937
0	206888	10.013934182695	1938
0	206895	10.013934183695	1939
0	207000	10.013934198695	1940
0	207035	10.013934203695	1941
0	207042	10.013934204695	1942
0	207063	10.013934207695	1943
0	207084	10.013934210695	1944
0	208139	10.01403161256	1945
0	208171	10.01403161456	1946
0	208185	10.01403161656	1947
0	208206	10.01403161956	1948
0	208213	10.01403162056	1949
0	208220	10.01403162156	1950
0	208255	10.01403162656	1951
0	208269	10.01403162856	1952
0	208283	10.01403163056	1953
0	208290	10.01403163156	1954
0	208304	10.01403163356	1955
0	208332	10.01403163756	1956
0	208346	10.01403163956	1957
0	208353	10.01403164056	1958
0	208367	10.01403164256	1959
0	208388	10.01403164556	1960
0	208402	10.01403164756	1961
0	209521	10.014129050425	1962
0	209535	10.014129052425	1963
0	209549	10.014129054425	1964
0	209563	10.014129056425	1965
0	209603	10.014129060425	1966
0	209631	10.014129064425	1967
0	209701	10.014129074425	1968
0	209708	10.014129075425	1969
0	209715	10.014129076425	1970
0	209722	10.014129077425	1971
0	209729	10.014129078425	1972
0	209736	10.014129079425	1973
0	209771	10.014129084425	1974
0	210899	10.01422648729	1975
0	210906	10.01422648829	1976
0	210920	10.01422649029	1977
0	210934	10.01422649229	1978
0	210962	10.01422649629	1979
0	210969	10.01422649729	1980
0	210976	10.01422649829	1981
0	211078	10.01422651029	1982
0	211092	10.01422651229	1983
0	211113	10.01422651529	1984
0	211134	10.01422651829	1985
0	211141	10.01422651929	1986
0	212243	10.014323920155	1987
0	212257	10.014323922155	1988
0	212264	10.014323923155	1989
0	212278	10.014323925155	1990
0	212299	10.014323928155	1991
0	212334	10.014323933155	1992
0	212348	10.014323935155	1993
0	212376	10.014323939155	1994
0	212383	10.014323940155	1995
0	212390	10.014323941155	1996
0	212425	10.014323946155	1997
0	212432	10.014323947155	1998
0	212439	10.014323948155	1999
0	213618	10.01442135702	2000
0	213632	10.01442135902	2001
0	213667	10.01442136402	2002
0	213674	10.01442136502	2003
0	213709	10.01442137002	2004
0	213751	10.01442137602	2005
0	213758	10.01442137702	2006
0	213765	10.01442137802	2007
0	213779	10.01442138002	2008
0	213807	10.01442138402	2009
0	213821	10.01442138602	2010
0	214995	10.014518790885	2011
0	215002	10.014518791885	2012
0	215044	10.014518797885	2013
0	215065	10.014518800885	2014
0	215072	10.014518801885	2015
0	215079	10.014518802885	2016
0	215107	10.014518806885	2017
0	215114	10.014518807885	2018
0	215135	10.014518810885	2019
0	215142	10.014518811885	2020
0	215163	10.014518814885	2021
0	215191	10.014518818885	2022
0	215219	10.014518822885	2023
0	216364	10.01461622375	2024
0	216406	10.01461622975	2025
0	216448	10.01461623575	2026
0	216455	10.01461623675	2027
0	216497	10.01461624275	2028
0	216511	10.01461624475	2029
0	216525	10.01461624675	2030
0	216539	10.01461624875	2031
0	216567	10.01461625275	2032
0	216595	10.01461625675	2033
0	217776	10.014713657615	2034
0	217790	10.014713659615	2035
0	217804	10.014713661615	2036
0	217811	10.014713662615	2037
0	217825	10.014713664615	2038
0	217832	10.014713665615	2039
0	217839	10.014713666615	2040
0	217846	10.014713667615	2041
0	217916	10.014713677615	2042
0	217951	10.014713682615	2043
0	217958	10.014713683615	2044
0	217979	10.014713686615	2045
0	219224	10.01481109448	2046
0	219231	10.01481109548	2047
0	219259	10.01481109948	2048
0	219294	10.01481110448	2049
0	219315	10.01481110748	2050
0	219336	10.01481111048	2051
0	219399	10.01481111948	2052
0	219420	10.01481112248	2053
0	219427	10.01481112348	2054
0	219434	10.01481112448	2055
0	219448	10.01481112648	2056
0	219455	10.01481112748	2057
0	219469	10.01481112948	2058
0	220704	10.014908533345	2059
0	220711	10.014908534345	2060
0	220732	10.014908537345	2061
0	220788	10.014908545345	2062
0	220802	10.014908547345	2063
0	220823	10.014908550345	2064
0	220830	10.014908551345	2065
0	220844	10.014908553345	2066
0	220851	10.014908554345	2067
0	220872	10.014908557345	2068
0	220907	10.014908562345	2069
0	220921	10.014908564345	2070
0	220928	10.014908565345	2071
0	222150	10.01500597421	2072
0	222220	10.01500598421	2073
0	222234	10.01500598621	2074
0	222241	10.01500598721	2075
0	222255	10.01500598921	2076
0	222262	10.01500599021	2077
0	222276	10.01500599221	2078
0	222325	10.01500599921	2079
0	222353	10.01500600321	2080
0	222367	10.01500600521	2081
0	223579	10.015103417075	2082
0	223586	10.015103418075	2083
0	223600	10.015103420075	2084
0	223607	10.015103421075	2085
0	223642	10.015103426075	2086
0	223649	10.015103427075	2087
0	223663	10.015103429075	2088
0	223698	10.015103434075	2089
0	223719	10.015103437075	2090
0	223754	10.015103442075	2091
0	223761	10.015103443075	2092
0	223775	10.015103445075	2093
0	223803	10.015103449075	2094
0	223824	10.015103452075	2095
0	225010	10.01520085594	2096
0	225024	10.01520085794	2097
0	225038	10.01520085994	2098
0	225066	10.01520086394	2099
0	225101	10.01520086894	2100
0	225108	10.01520086994	2101
0	225115	10.01520087094	2102
0	225122	10.01520087194	2103
0	225136	10.01520087394	2104
0	225150	10.01520087594	2105
0	225199	10.01520088294	2106
0	225241	10.01520088894	2107
0	225283	10.01520089494	2108
0	226440	10.015298297805	2109
0	226475	10.015298302805	2110
0	226489	10.015298304805	2111
0	226566	10.015298315805	2112
0	226573	10.015298316805	2113
0	226643	10.015298326805	2114
0	226657	10.015298328805	2115
0	226685	10.015298332805	2116
0	226699	10.015298334805	2117
0	227786	10.01539574067	2118
0	227807	10.01539574367	2119
0	227814	10.01539574467	2120
0	227821	10.01539574567	2121
0	227835	10.01539574767	2122
0	227842	10.01539574867	2123
0	227877	10.01539575367	2124
0	227905	10.01539575767	2125
0	227940	10.01539576267	2126
0	227947	10.01539576367	2127
0	227961	10.01539576567	2128
0	227968	10.01539576667	2129
0	227975	10.01539576767	2130
0	227996	10.01539577067	2131
0	228003	10.01539577167	2132
0	228038	10.01539577667	2133
0	228045	10.01539577767	2134
0	228059	10.01539577967	2135
0	228080	10.01539578267	2136
0	229338	10.015493188535	2137
0	229345	10.015493189535	2138
0	229429	10.015493201535	2139
0	229436	10.015493202535	2140
0	229492	10.015493210535	2141
0	229506	10.015493212535	2142
0	229513	10.015493213535	2143
0	229520	10.015493214535	2144
0	229576	10.015493222535	2145
0	230653	10.0155906264	2146
0	230660	10.0155906274	2147
0	230702	10.0155906334	2148
0	230751	10.0155906404	2149
0	230758	10.0155906414	2150
0	230772	10.0155906434	2151
0	230856	10.0155906554	2152
0	230863	10.0155906564	2153
0	230905	10.0155906624	2154
0	230933	10.0155906664	2155
0	230947	10.0155906684	2156
0	232057	10.015688070265	2157
0	232085	10.015688074265	2158
0	232099	10.015688076265	2159
0	232113	10.015688078265	2160
0	232120	10.015688079265	2161
0	232127	10.015688080265	2162
0	232162	10.015688085265	2163
0	232176	10.015688087265	2164
0	232211	10.015688092265	2165
0	232295	10.015688104265	2166
0	232330	10.015688109265	2167
0	233413	10.01578551913	2168
0	233462	10.01578552613	2169
0	233476	10.01578552813	2170
0	233483	10.01578552913	2171
0	233511	10.01578553313	2172
0	233525	10.01578553513	2173
0	233532	10.01578553613	2174
0	233539	10.01578553713	2175
0	233567	10.01578554113	2176
0	233602	10.01578554613	2177
0	233609	10.01578554713	2178
0	233623	10.01578554913	2179
0	233637	10.01578555113	2180
0	233644	10.01578555213	2181
0	233665	10.01578555513	2182
0	234793	10.015882961995	2183
0	234828	10.015882966995	2184
0	234842	10.015882968995	2185
0	234856	10.015882970995	2186
0	234863	10.015882971995	2187
0	234982	10.015882988995	2188
0	234989	10.015882989995	2189
0	235003	10.015882991995	2190
0	235017	10.015882993995	2191
0	235024	10.015882994995	2192
0	235038	10.015882996995	2193
0	235066	10.015883000995	2194
0	235073	10.015883001995	2195
0	235080	10.015883002995	2196
0	236311	10.01598042086	2197
0	236339	10.01598042486	2198
0	236353	10.01598042686	2199
0	236360	10.01598042786	2200
0	236416	10.01598043586	2201
0	236444	10.01598043986	2202
0	236465	10.01598044286	2203
0	236472	10.01598044386	2204
0	236479	10.01598044486	2205
0	236486	10.01598044586	2206
0	236500	10.01598044786	2207
0	237615	10.016077848725	2208
0	237643	10.016077852725	2209
0	237650	10.016077853725	2210
0	237664	10.016077855725	2211
0	237678	10.016077857725	2212
0	237685	10.016077858725	2213
0	237727	10.016077864725	2214
0	237762	10.016077869725	2215
0	237776	10.016077871725	2216
0	237790	10.016077873725	2217
0	237797	10.016077874725	2218
0	237811	10.016077876725	2219
0	237853	10.016077882725	2220
0	237860	10.016077883725	2221
0	237902	10.016077889725	2222
0	239073	10.01617529359	2223
0	239115	10.01617529959	2224
0	239150	10.01617530459	2225
0	239241	10.01617531759	2226
0	239255	10.01617531959	2227
0	239269	10.01617532159	2228
0	239290	10.01617532459	2229
0	239297	10.01617532559	2230
0	239311	10.01617532759	2231
0	239332	10.01617533059	2232
0	239339	10.01617533159	2233
0	240487	10.016272739455	2234
0	240494	10.016272740455	2235
0	240501	10.016272741455	2236
0	240508	10.016272742455	2237
0	240515	10.016272743455	2238
0	240529	10.016272745455	2239
0	240571	10.016272751455	2240
0	240578	10.016272752455	2241
0	240606	10.016272756455	2242
0	240613	10.016272757455	2243
0	240627	10.016272759455	2244
0	240641	10.016272761455	2245
0	240669	10.016272765455	2246
0	240725	10.016272773455	2247
0	240732	10.016272774455	2248
0	241954	10.01637018132	2249
0	241989	10.01637018632	2250
0	242024	10.01637019132	2251
0	242059	10.01637019632	2252
0	242073	10.01637019832	2253
0	242101	10.01637020232	2254
0	242115	10.01637020432	2255
0	242122	10.01637020532	2256
0	242129	10.01637020632	2257
0	242150	10.01637020932	2258
0	242171	10.01637021232	2259
0	242206	10.01637021732	2260
0	242234	10.01637022132	2261
0	243379	10.016467624185	2262
0	243400	10.016467627185	2263
0	243407	10.016467628185	2264
0	243414	10.016467629185	2265
0	243421	10.016467630185	2266
0	243428	10.016467631185	2267
0	243435	10.016467632185	2268
0	243442	10.016467633185	2269
0	243463	10.016467636185	2270
0	243526	10.016467645185	2271
0	243554	10.016467649185	2272
0	243561	10.016467650185	2273
0	243589	10.016467654185	2274
0	243596	10.016467655185	2275
0	243638	10.016467661185	2276
0	243666	10.016467665185	2277
0	243673	10.016467666185	2278
0	243680	10.016467667185	2279
0	244877	10.01656507205	2280
0	244884	10.01656507305	2281
0	244912	10.01656507705	2282
0	245024	10.01656509305	2283
0	245052	10.01656509705	2284
0	245059	10.01656509805	2285
0	245101	10.01656510405	2286
0	245115	10.01656510605	2287
0	245122	10.01656510705	2288
0	245143	10.01656511005	2289
0	246241	10.016662511915	2290
0	246269	10.016662515915	2291
0	246283	10.016662517915	2292
0	246297	10.016662519915	2293
0	246311	10.016662521915	2294
0	246353	10.016662527915	2295
0	246367	10.016662529915	2296
0	246374	10.016662530915	2297
0	246381	10.016662531915	2298
0	246416	10.016662536915	2299
0	246444	10.016662540915	2300
0	246458	10.016662542915	2301
0	246472	10.016662544915	2302
0	246507	10.016662549915	2303
0	246514	10.016662550915	2304
0	247709	10.01675995278	2305
0	247716	10.01675995378	2306
0	247723	10.01675995478	2307
0	247730	10.01675995578	2308
0	247765	10.01675996078	2309
0	247800	10.01675996578	2310
0	247814	10.01675996778	2311
0	247863	10.01675997478	2312
0	247891	10.01675997878	2313
0	247898	10.01675997978	2314
0	247988	10.01675999178	2315
0	249122	10.016857396645	2316
0	249129	10.016857397645	2317
0	249150	10.016857400645	2318
0	249164	10.016857402645	2319
0	249192	10.016857406645	2320
0	249213	10.016857409645	2321
0	249220	10.016857410645	2322
0	249234	10.016857412645	2323
0	249241	10.016857413645	2324
0	249255	10.016857415645	2325
0	249262	10.016857416645	2326
0	249269	10.016857417645	2327
0	249276	10.016857418645	2328
0	249318	10.016857424645	2329
0	249325	10.016857425645	2330
0	249339	10.016857427645	2331
0	249353	10.016857429645	2332
0	249367	10.016857431645	2333
0	250581	10.01695483651	2334
0	250588	10.01695483751	2335
0	250595	10.01695483851	2336
0	250609	10.01695484051	2337
0	250623	10.01695484251	2338
0	250644	10.01695484551	2339
0	250651	10.01695484651	2340
0	250665	10.01695484851	2341
0	250700	10.01695485351	2342
0	250735	10.01695485851	2343
0	250756	10.01695486151	2344
0	250770	10.01695486351	2345
0	250819	10.01695487051	2346
0	250826	10.01695487151	2347
0	252023	10.017052274375	2348
0	252037	10.017052276375	2349
0	252058	10.017052279375	2350
0	252079	10.017052282375	2351
0	252086	10.017052283375	2352
0	252107	10.017052286375	2353
0	252114	10.017052287375	2354
0	252135	10.017052290375	2355
0	252142	10.017052291375	2356
0	252156	10.017052293375	2357
0	252177	10.017052296375	2358
0	252226	10.017052303375	2359
0	252233	10.017052304375	2360
0	252254	10.017052307375	2361
0	253468	10.01714971024	2362
0	253503	10.01714971524	2363
0	253510	10.01714971624	2364
0	253566	10.01714972424	2365
0	253622	10.01714973224	2366
0	253636	10.01714973424	2367
0	253643	10.01714973524	2368
0	253664	10.01714973824	2369
0	253671	10.01714973924	2370
0	253678	10.01714974024	2371
0	253685	10.01714974124	2372
0	253699	10.01714974324	2373
0	253706	10.01714974424	2374
0	253713	10.01714974524	2375
0	254922	10.017247150105	2376
0	254936	10.017247152105	2377
0	254943	10.017247153105	2378
0	254950	10.017247154105	2379
0	254957	10.017247155105	2380
0	255020	10.017247164105	2381
0	255041	10.017247167105	2382
0	255048	10.017247168105	2383
0	255069	10.017247171105	2384
0	255174	10.017247186105	2385
0	256315	10.01734458897	2386
0	256413	10.01734460297	2387
0	256420	10.01734460397	2388
0	256434	10.01734460597	2389
0	256441	10.01734460697	2390
0	256455	10.01734460897	2391
0	256462	10.01734460997	2392
0	256469	10.01734461097	2393
0	256483	10.01734461297	2394
0	256511	10.01734461697	2395
0	256532	10.01734461997	2396
0	256546	10.01734462197	2397
0	257750	10.017442028835	2398
0	257778	10.017442032835	2399
0	257785	10.017442033835	2400
0	257799	10.017442035835	2401
0	257813	10.017442037835	2402
0	257841	10.017442041835	2403
0	257855	10.017442043835	2404
0	257862	10.017442044835	2405
0	257869	10.017442045835	2406
0	257876	10.017442046835	2407
0	257883	10.017442047835	2408
0	257897	10.017442049835	2409
0	257911	10.017442051835	2410
0	257967	10.017442059835	2411
0	257988	10.017442062835	2412
0	257995	10.017442063835	2413
0	258002	10.017442064835	2414
0	259241	10.0175394677	2415
0	259255	10.0175394697	2416
0	259304	10.0175394767	2417
0	259318	10.0175394787	2418
0	259381	10.0175394877	2419
0	259395	10.0175394897	2420
0	259409	10.0175394917	2421
0	259423	10.0175394937	2422
0	259451	10.0175394977	2423
0	259479	10.0175395017	2424
0	260656	10.017636906565	2425
0	260670	10.017636908565	2426
0	260705	10.017636913565	2427
0	260726	10.017636916565	2428
0	260754	10.017636920565	2429
0	260782	10.017636924565	2430
0	260803	10.017636927565	2431
0	260810	10.017636928565	2432
0	260873	10.017636937565	2433
0	260880	10.017636938565	2434
0	260901	10.017636941565	2435
0	260922	10.017636944565	2436
0	262098	10.01773435043	2437
0	262133	10.01773435543	2438
0	262161	10.01773435943	2439
0	262168	10.01773436043	2440
0	262231	10.01773436943	2441
0	262280	10.01773437643	2442
0	262294	10.01773437843	2443
0	262308	10.01773438043	2444
0	262343	10.01773438543	2445
0	262350	10.01773438643	2446
0	262357	10.01773438743	2447
0	263500	10.017831791295	2448
0	263507	10.017831792295	2449
0	263514	10.017831793295	2450
0	263521	10.017831794295	2451
0	263535	10.017831796295	2452
0	263542	10.017831797295	2453
0	263563	10.017831800295	2454
0	263591	10.017831804295	2455
0	263605	10.017831806295	2456
0	263633	10.017831810295	2457
0	263640	10.017831811295	2458
0	263675	10.017831816295	2459
0	263689	10.017831818295	2460
0	263717	10.017831822295	2461
0	263724	10.017831823295	2462
0	263752	10.017831827295	2463
0	263766	10.017831829295	2464
0	263780	10.017831831295	2465
0	264980	10.01792923316	2466
0	265029	10.01792924016	2467
0	265057	10.01792924416	2468
0	265064	10.01792924516	2469
0	265078	10.01792924716	2470
0	265106	10.01792925116	2471
0	265134	10.01792925516	2472
0	265141	10.01792925616	2473
0	265211	10.01792926616	2474
0	265267	10.01792927416	2475
0	266382	10.018026676025	2476
0	266396	10.018026678025	2477
0	266417	10.018026681025	2478
0	266459	10.018026687025	2479
0	266466	10.018026688025	2480
0	266550	10.018026700025	2481
0	266606	10.018026708025	2482
0	266634	10.018026712025	2483
0	266648	10.018026714025	2484
0	266655	10.018026715025	2485
0	266662	10.018026716025	2486
0	266676	10.018026718025	2487
0	267766	10.01812411989	2488
0	267801	10.01812412489	2489
0	267815	10.01812412689	2490
0	267836	10.01812412989	2491
0	267850	10.01812413189	2492
0	267857	10.01812413289	2493
0	267871	10.01812413489	2494
0	267885	10.01812413689	2495
0	267899	10.01812413889	2496
0	267934	10.01812414389	2497
0	267962	10.01812414789	2498
0	267969	10.01812414889	2499
0	267976	10.01812414989	2500
0	267983	10.01812415089	2501
0	267990	10.01812415189	2502
0	268053	10.01812416089	2503
0	268060	10.01812416189	2504
0	269232	10.018221563755	2505
0	269246	10.018221565755	2506
0	269295	10.018221572755	2507
0	269302	10.018221573755	2508
0	269323	10.018221576755	2509
0	269344	10.018221579755	2510
0	269379	10.018221584755	2511
0	269400	10.018221587755	2512
0	269456	10.018221595755	2513
0	269463	10.018221596755	2514
0	269470	10.018221597755	2515
0	269491	10.018221600755	2516
0	270644	10.01831900862	2517
0	270651	10.01831900962	2518
0	270665	10.01831901162	2519
0	270686	10.01831901462	2520
0	270707	10.01831901762	2521
0	270735	10.01831902162	2522
0	270749	10.01831902362	2523
0	270756	10.01831902462	2524
0	270763	10.01831902562	2525
0	270777	10.01831902762	2526
0	270791	10.01831902962	2527
0	270798	10.01831903062	2528
0	270812	10.01831903262	2529
0	270826	10.01831903462	2530
0	270868	10.01831904062	2531
0	270875	10.01831904162	2532
0	270903	10.01831904562	2533
0	270910	10.01831904662	2534
0	270917	10.01831904762	2535
0	272194	10.018416459485	2536
0	272208	10.018416461485	2537
0	272257	10.018416468485	2538
0	272264	10.018416469485	2539
0	272306	10.018416475485	2540
0	272313	10.018416476485	2541
0	272320	10.018416477485	2542
0	272334	10.018416479485	2543
0	272348	10.018416481485	2544
0	272383	10.018416486485	2545
0	272390	10.018416487485	2546
0	272432	10.018416493485	2547
0	273592	10.01851389735	2548
0	273648	10.01851390535	2549
0	273655	10.01851390635	2550
0	273690	10.01851391135	2551
0	273704	10.01851391335	2552
0	273732	10.01851391735	2553
0	273739	10.01851391835	2554
0	273746	10.01851391935	2555
0	273753	10.01851392035	2556
0	273760	10.01851392135	2557
0	273774	10.01851392335	2558
0	273788	10.01851392535	2559
0	273809	10.01851392835	2560
0	273872	10.01851393735	2561
0	275078	10.018611345215	2562
0	275085	10.018611346215	2563
0	275106	10.018611349215	2564
0	275113	10.018611350215	2565
0	275120	10.018611351215	2566
0	275134	10.018611353215	2567
0	275141	10.018611354215	2568
0	275211	10.018611364215	2569
0	275218	10.018611365215	2570
0	275232	10.018611367215	2571
0	275253	10.018611370215	2572
0	275274	10.018611373215	2573
0	275281	10.018611374215	2574
0	275323	10.018611380215	2575
0	276479	10.01870878308	2576
0	276493	10.01870878508	2577
0	276500	10.01870878608	2578
0	276507	10.01870878708	2579
0	276521	10.01870878908	2580
0	276591	10.01870879908	2581
0	276598	10.01870880008	2582
0	276612	10.01870880208	2583
0	276619	10.01870880308	2584
0	276647	10.01870880708	2585
0	276654	10.01870880808	2586
0	276661	10.01870880908	2587
0	276668	10.01870881008	2588
0	276689	10.01870881308	2589
0	276696	10.01870881408	2590
0	276703	10.01870881508	2591
0	276745	10.01870882108	2592
0	276752	10.01870882208	2593
0	277966	10.018806226945	2594
0	277987	10.018806229945	2595
0	278001	10.018806231945	2596
0	278029	10.018806235945	2597
0	278050	10.018806238945	2598
0	278092	10.018806244945	2599
0	278176	10.018806256945	2600
0	278246	10.018806266945	2601
0	278253	10.018806267945	2602
0	279362	10.01890366881	2603
0	279376	10.01890367081	2604
0	279383	10.01890367181	2605
0	279390	10.01890367281	2606
0	279411	10.01890367581	2607
0	279418	10.01890367681	2608
0	279446	10.01890368081	2609
0	279453	10.01890368181	2610
0	279488	10.01890368681	2611
0	279544	10.01890369481	2612
0	279565	10.01890369781	2613
0	279642	10.01890370881	2614
0	279649	10.01890370981	2615
0	280793	10.019001113675	2616
0	280800	10.019001114675	2617
0	280849	10.019001121675	2618
0	280856	10.019001122675	2619
0	280870	10.019001124675	2620
0	280925	10.019001131675	2621
0	280932	10.019001132675	2622
0	280946	10.019001134675	2623
0	280967	10.019001137675	2624
0	280995	10.019001141675	2625
0	281023	10.019001145675	2626
0	281030	10.019001146675	2627
0	281044	10.019001148675	2628
0	281051	10.019001149675	2629
0	281058	10.019001150675	2630
0	281072	10.019001152675	2631
0	281093	10.019001155675	2632
0	282237	10.01909855754	2633
0	282300	10.01909856654	2634
0	282307	10.01909856754	2635
0	282328	10.01909857054	2636
0	282342	10.01909857254	2637
0	282363	10.01909857554	2638
0	282384	10.01909857854	2639
0	282391	10.01909857954	2640
0	282433	10.01909858554	2641
0	282447	10.01909858754	2642
0	282475	10.01909859154	2643
0	282489	10.01909859354	2644
0	282496	10.01909859454	2645
0	282510	10.01909859654	2646
0	282524	10.01909859854	2647
0	282531	10.01909859954	2648
0	283707	10.019196002405	2649
0	283721	10.019196004405	2650
0	283728	10.019196005405	2651
0	283749	10.019196008405	2652
0	283784	10.019196013405	2653
0	283798	10.019196015405	2654
0	283805	10.019196016405	2655
0	283819	10.019196018405	2656
0	283826	10.019196019405	2657
0	283840	10.019196021405	2658
0	283924	10.019196033405	2659
0	283931	10.019196034405	2660
0	283945	10.019196036405	2661
0	283966	10.019196039405	2662
0	283973	10.019196040405	2663
0	285153	10.01929344127	2664
0	285167	10.01929344327	2665
0	285174	10.01929344427	2666
0	285187	10.01929344527	2667
0	285208	10.01929344827	2668
0	285222	10.01929345027	2669
0	285236	10.01929345227	2670
0	285250	10.01929345427	2671
0	285271	10.01929345727	2672
0	285278	10.01929345827	2673
0	285285	10.01929345927	2674
0	285292	10.01929346027	2675
0	285313	10.01929346327	2676
0	285327	10.01929346527	2677
0	285341	10.01929346727	2678
0	285348	10.01929346827	2679
0	286641	10.019390880135	2680
0	286648	10.019390881135	2681
0	286655	10.019390882135	2682
0	286662	10.019390883135	2683
[...]
1	3000711	10.210178193805	27409
1	3000718	10.210178194805	27410
1	3000725	10.210178195805	27411
1	3000753	10.210178199805	27412
1	3000795	10.210178205805	27413
1	3000802	10.210178206805	27414
1	3000816	10.210178208805	27415
1	3001995	10.21027561367	27416
1	3002016	10.21027561667	27417
1	3002023	10.21027561767	27418
1	3002037	10.21027561967	27419
1	3002065	10.21027562367	27420
1	3002107	10.21027562967	27421
1	3002121	10.21027563167	27422
1	3002142	10.21027563467	27423
1	3002149	10.21027563567	27424
1	3002163	10.21027563767	27425
1	3002226	10.21027564667	27426
1	3002233	10.21027564767	27427
1	3002254	10.21027565067	27428
1	3003369	10.210373054535	27429
1	3003390	10.210373057535	27430
1	3003397	10.210373058535	27431
1	3003446	10.210373065535	27432
1	3003453	10.210373066535	27433
1	3003467	10.210373068535	27434
1	3003481	10.210373070535	27435
1	3003488	10.210373071535	27436
1	3003495	10.210373072535	27437
1	3003509	10.210373074535	27438
1	3003551	10.210373080535	27439
1	3003565	10.210373082535	27440
1	3003621	10.210373090535	27441
1	3003628	10.210373091535	27442
1	3004695	10.2104704944	27443
1	3004716	10.2104704974	27444
1	3004751	10.2104705024	27445
1	3004786	10.2104705074	27446
1	3004814	10.2104705114	27447
1	3004877	10.2104705204	27448
1	3004884	10.2104705214	27449
1	3004891	10.2104705224	27450
1	3004898	10.2104705234	27451
1	3004940	10.2104705294	27452
1	3004947	10.2104705304	27453
1	3005992	10.210567932265	27454
1	3006020	10.210567936265	27455
1	3006041	10.210567939265	27456
1	3006055	10.210567941265	27457
1	3006104	10.210567948265	27458
1	3006111	10.210567949265	27459
1	3006146	10.210567954265	27460
1	3006174	10.210567958265	27461
1	3006181	10.210567959265	27462
1	3006202	10.210567962265	27463
1	3006209	10.210567963265	27464
1	3006230	10.210567966265	27465
1	3006244	10.210567968265	27466
1	3007381	10.21066537213	27467
1	3007388	10.21066537313	27468
1	3007402	10.21066537513	27469
1	3007430	10.21066537913	27470
1	3007451	10.21066538213	27471
1	3007472	10.21066538513	27472
1	3007479	10.21066538613	27473
1	3007486	10.21066538713	27474
1	3007500	10.21066538913	27475
1	3007556	10.21066539713	27476
1	3007570	10.21066539913	27477
1	3007591	10.21066540213	27478
1	3007605	10.21066540413	27479
1	3007612	10.21066540513	27480
1	3008805	10.210762807995	27481
1	3008812	10.210762808995	27482
1	3008819	10.210762809995	27483
1	3008833	10.210762811995	27484
1	3008847	10.210762813995	27485
1	3008854	10.210762814995	27486
1	3008868	10.210762816995	27487
1	3008875	10.210762817995	27488
1	3008903	10.210762821995	27489
1	3008910	10.210762822995	27490
1	3008924	10.210762824995	27491
1	3008945	10.210762827995	27492
1	3008987	10.210762833995	27493
1	3009001	10.210762835995	27494
1	3009008	10.210762836995	27495
1	3009022	10.210762838995	27496
1	3009029	10.210762839995	27497
1	3009036	10.210762840995	27498
1	3009043	10.210762841995	27499
1	3010240	10.21086024286	27500
1	3010282	10.21086024886	27501
1	3010303	10.21086025186	27502
1	3010352	10.21086025886	27503
1	3010359	10.21086025986	27504
1	3010366	10.21086026086	27505
1	3010380	10.21086026286	27506
1	3010394	10.21086026486	27507
1	3010429	10.21086026986	27508
1	3010436	10.21086027086	27509
1	3011595	10.210957680725	27510
1	3011623	10.210957684725	27511
1	3011637	10.210957686725	27512
1	3011665	10.210957690725	27513
1	3011672	10.210957691725	27514
1	3011686	10.210957693725	27515
1	3011728	10.210957699725	27516
1	3011735	10.210957700725	27517
1	3011742	10.210957701725	27518
1	3011777	10.210957706725	27519
1	3011798	10.210957709725	27520
1	3011819	10.210957712725	27521
1	3012969	10.21105511759	27522
1	3012997	10.21105512159	27523
1	3013025	10.21105512559	27524
1	3013039	10.21105512759	27525
1	3013074	10.21105513259	27526
1	3013116	10.21105513859	27527
1	3013165	10.21105514559	27528
1	3014276	10.211152549455	27529
1	3014283	10.211152550455	27530
1	3014297	10.211152552455	27531
1	3014304	10.211152553455	27532
1	3014381	10.211152564455	27533
1	3014402	10.211152567455	27534
1	3014423	10.211152570455	27535
1	3014465	10.211152576455	27536
1	3014500	10.211152581455	27537
1	3014521	10.211152584455	27538
1	3015687	10.21124999132	27539
1	3015701	10.21124999332	27540
1	3015750	10.21125000032	27541
1	3015771	10.21125000332	27542
1	3015778	10.21125000432	27543
1	3015827	10.21125001132	27544
1	3015841	10.21125001332	27545
1	3015848	10.21125001432	27546
1	3015883	10.21125001932	27547
1	3015925	10.21125002532	27548
1	3015953	10.21125002932	27549
1	3017046	10.211347430185	27550
1	3017053	10.211347431185	27551
1	3017067	10.211347433185	27552
1	3017095	10.211347437185	27553
1	3017102	10.211347438185	27554
1	3017109	10.211347439185	27555
1	3017137	10.211347443185	27556
1	3017151	10.211347445185	27557
1	3017172	10.211347448185	27558
1	3017179	10.211347449185	27559
1	3017291	10.211347465185	27560
1	3017305	10.211347467185	27561
1	3017326	10.211347470185	27562
1	3018467	10.21144487205	27563
1	3018488	10.21144487505	27564
1	3018509	10.21144487805	27565
1	3018537	10.21144488205	27566
1	3018565	10.21144488605	27567
1	3018607	10.21144489205	27568
1	3018628	10.21144489505	27569
1	3018635	10.21144489605	27570
1	3018663	10.21144490005	27571
1	3018677	10.21144490205	27572
1	3018698	10.21144490505	27573
1	3018712	10.21144490705	27574
1	3018740	10.21144491105	27575
1	3018747	10.21144491205	27576
1	3019926	10.211542312915	27577
1	3019975	10.211542319915	27578
1	3019996	10.211542322915	27579
1	3020017	10.211542325915	27580
1	3020024	10.211542326915	27581
1	3020031	10.211542327915	27582
1	3020038	10.211542328915	27583
1	3020045	10.211542329915	27584
1	3020052	10.211542330915	27585
1	3020073	10.211542333915	27586
1	3020115	10.211542339915	27587
1	3020164	10.211542346915	27588
1	3020185	10.211542349915	27589
1	3020192	10.211542350915	27590
1	3020213	10.211542353915	27591
1	3020220	10.211542354915	27592
1	3021413	10.21163975578	27593
1	3021441	10.21163975978	27594
1	3021455	10.21163976178	27595
1	3021469	10.21163976378	27596
1	3021476	10.21163976478	27597
1	3021497	10.21163976778	27598
1	3021518	10.21163977078	27599
1	3021553	10.21163977578	27600
1	3021637	10.21163978778	27601
1	3021644	10.21163978878	27602
1	3021700	10.21163979678	27603
1	3022840	10.211737201645	27604
1	3022847	10.211737202645	27605
1	3022854	10.211737203645	27606
1	3022868	10.211737205645	27607
1	3022903	10.211737210645	27608
1	3022917	10.211737212645	27609
1	3022938	10.211737215645	27610
1	3022987	10.211737222645	27611
1	3023008	10.211737225645	27612
1	3023015	10.211737226645	27613
1	3023057	10.211737232645	27614
1	3023064	10.211737233645	27615
1	3023085	10.211737236645	27616
1	3024205	10.21183464751	27617
1	3024240	10.21183465251	27618
1	3024261	10.21183465551	27619
1	3024317	10.21183466351	27620
1	3024324	10.21183466451	27621
1	3024331	10.21183466551	27622
1	3024338	10.21183466651	27623
1	3024380	10.21183467251	27624
1	3024422	10.21183467851	27625
1	3024450	10.21183468251	27626
1	3025477	10.211932086375	27627
1	3025512	10.211932091375	27628
1	3025519	10.211932092375	27629
1	3025526	10.211932093375	27630
1	3025533	10.211932094375	27631
1	3025568	10.211932099375	27632
1	3025624	10.211932107375	27633
1	3025659	10.211932112375	27634
1	3025666	10.211932113375	27635
1	3025701	10.211932118375	27636
1	3026838	10.21202952824	27637
1	3026845	10.21202952924	27638
1	3026866	10.21202953224	27639
1	3026894	10.21202953624	27640
1	3026936	10.21202954224	27641
1	3026978	10.21202954824	27642
1	3026999	10.21202955124	27643
1	3027034	10.21202955624	27644
1	3027083	10.21202956324	27645
1	3027090	10.21202956424	27646
1	3028191	10.212126972105	27647
1	3028226	10.212126977105	27648
1	3028240	10.212126979105	27649
1	3028254	10.212126981105	27650
1	3028310	10.212126989105	27651
1	3028338	10.212126993105	27652
1	3028359	10.212126996105	27653
1	3028387	10.212127000105	27654
1	3028422	10.212127005105	27655
1	3028450	10.212127009105	27656
1	3028471	10.212127012105	27657
1	3029513	10.21222441597	27658
1	3029555	10.21222442197	27659
1	3029618	10.21222443097	27660
1	3029632	10.21222443297	27661
1	3029646	10.21222443497	27662
1	3029723	10.21222444597	27663
1	3029744	10.21222444897	27664
1	3029758	10.21222445097	27665
1	3030810	10.212321855835	27666
1	3030824	10.212321857835	27667
1	3030831	10.212321858835	27668
1	3030845	10.212321860835	27669
1	3030873	10.212321864835	27670
1	3030901	10.212321868835	27671
1	3030915	10.212321870835	27672
1	3030922	10.212321871835	27673
1	3030950	10.212321875835	27674
1	3030985	10.212321880835	27675
1	3030992	10.212321881835	27676
1	3031034	10.212321887835	27677
1	3031041	10.212321888835	27678
1	3031048	10.212321889835	27679
1	3031083	10.212321894835	27680
1	3031097	10.212321896835	27681
1	3032214	10.2124192987	27682
1	3032242	10.2124193027	27683
1	3032256	10.2124193047	27684
1	3032263	10.2124193057	27685
1	3032284	10.2124193087	27686
1	3032291	10.2124193097	27687
1	3032298	10.2124193107	27688
1	3032326	10.2124193147	27689
1	3032347	10.2124193177	27690
1	3032354	10.2124193187	27691
1	3032375	10.2124193217	27692
1	3032382	10.2124193227	27693
1	3032389	10.2124193237	27694
1	3032403	10.2124193257	27695
1	3032431	10.2124193297	27696
1	3032466	10.2124193347	27697
1	3032480	10.2124193367	27698
1	3032494	10.2124193387	27699
1	3032501	10.2124193397	27700
1	3033664	10.212516741565	27701
1	3033671	10.212516742565	27702
1	3033685	10.212516744565	27703
1	3033706	10.212516747565	27704
1	3033734	10.212516751565	27705
1	3033769	10.212516756565	27706
1	3033783	10.212516758565	27707
1	3033790	10.212516759565	27708
1	3033839	10.212516766565	27709
1	3033846	10.212516767565	27710
1	3033853	10.212516768565	27711
1	3033860	10.212516769565	27712
1	3033881	10.212516772565	27713
1	3033909	10.212516776565	27714
1	3033916	10.212516777565	27715
1	3033923	10.212516778565	27716
1	3033930	10.212516779565	27717
1	3035093	10.21261418543	27718
1	3035177	10.21261419743	27719
1	3035212	10.21261420243	27720
1	3035247	10.21261420743	27721
1	3035261	10.21261420943	27722
1	3035296	10.21261421443	27723
1	3036390	10.212711618295	27724
1	3036439	10.212711625295	27725
1	3036453	10.212711627295	27726
1	3036495	10.212711633295	27727
1	3036523	10.212711637295	27728
1	3036530	10.212711638295	27729
1	3036579	10.212711645295	27730
1	3036593	10.212711647295	27731
1	3036649	10.212711655295	27732
1	3036656	10.212711656295	27733
1	3037813	10.21280906016	27734
1	3037827	10.21280906216	27735
1	3037834	10.21280906316	27736
1	3037869	10.21280906816	27737
1	3037876	10.21280906916	27738
1	3037890	10.21280907116	27739
1	3037904	10.21280907316	27740
1	3037911	10.21280907416	27741
1	3037939	10.21280907816	27742
1	3037967	10.21280908216	27743
1	3037988	10.21280908516	27744
1	3037995	10.21280908616	27745
1	3038023	10.21280909016	27746
1	3038079	10.21280909816	27747
1	3039196	10.212906500025	27748
1	3039224	10.212906504025	27749
1	3039280	10.212906512025	27750
1	3039287	10.212906513025	27751
1	3039301	10.212906515025	27752
1	3039315	10.212906517025	27753
1	3039336	10.212906520025	27754
1	3039364	10.212906524025	27755
1	3039406	10.212906530025	27756
1	3039427	10.212906533025	27757
1	3039434	10.212906534025	27758
1	3039476	10.212906540025	27759
1	3040618	10.21300394089	27760
1	3040674	10.21300394889	27761
1	3040681	10.21300394989	27762
1	3040716	10.21300395489	27763
1	3040737	10.21300395789	27764
1	3040744	10.21300395889	27765
1	3040786	10.21300396489	27766
1	3040814	10.21300396889	27767
1	3040835	10.21300397189	27768
1	3040842	10.21300397289	27769
1	3040849	10.21300397389	27770
1	3040863	10.21300397589	27771
1	3040891	10.21300397989	27772
1	3040912	10.21300398289	27773
1	3042126	10.213101401755	27774
1	3042140	10.213101403755	27775
1	3042224	10.213101415755	27776
1	3042231	10.213101416755	27777
1	3042245	10.213101418755	27778
1	3042252	10.213101419755	27779
1	3042280	10.213101423755	27780
1	3042287	10.213101424755	27781
1	3043347	10.21319882962	27782
1	3043354	10.21319883062	27783
1	3043368	10.21319883262	27784
1	3043403	10.21319883762	27785
1	3043424	10.21319884062	27786
1	3043452	10.21319884462	27787
1	3043473	10.21319884762	27788
1	3043536	10.21319885662	27789
1	3043543	10.21319885762	27790
1	3043550	10.21319885862	27791
1	3043557	10.21319885962	27792
1	3043564	10.21319886062	27793
1	3043571	10.21319886162	27794
1	3043578	10.21319886262	27795
1	3043585	10.21319886362	27796
1	3043613	10.21319886762	27797
1	3043620	10.21319886862	27798
1	3043627	10.21319886962	27799
1	3044748	10.213296272485	27800
1	3044783	10.213296277485	27801
1	3044811	10.213296281485	27802
1	3044818	10.213296282485	27803
1	3044839	10.213296285485	27804
1	3044846	10.213296286485	27805
1	3044860	10.213296288485	27806
1	3044867	10.213296289485	27807
1	3044937	10.213296299485	27808
1	3044944	10.213296300485	27809
1	3044951	10.213296301485	27810
1	3044958	10.213296302485	27811
1	3044993	10.213296307485	27812
1	3045007	10.213296309485	27813
1	3046108	10.21339371035	27814
1	3046129	10.21339371335	27815
1	3046185	10.21339372135	27816
1	3046192	10.21339372235	27817
1	3046220	10.21339372635	27818
1	3046241	10.21339372935	27819
1	3046248	10.21339373035	27820
1	3046255	10.21339373135	27821
1	3046276	10.21339373435	27822
1	3046283	10.21339373535	27823
1	3046297	10.21339373735	27824
1	3046304	10.21339373835	27825
1	3046367	10.21339374735	27826
1	3047561	10.213491150215	27827
1	3047575	10.213491152215	27828
1	3047582	10.213491153215	27829
1	3047603	10.213491156215	27830
1	3047617	10.213491158215	27831
1	3047645	10.213491162215	27832
1	3047673	10.213491166215	27833
1	3047701	10.213491170215	27834
1	3047708	10.213491171215	27835
1	3047722	10.213491173215	27836
1	3047729	10.213491174215	27837
1	3047750	10.213491177215	27838
1	3047764	10.213491179215	27839
1	3047792	10.213491183215	27840
1	3047806	10.213491185215	27841
1	3048959	10.21358859208	27842
1	3048987	10.21358859608	27843
1	3049043	10.21358860408	27844
1	3049057	10.21358860608	27845
1	3049162	10.21358862108	27846
1	3049183	10.21358862408	27847
1	3049190	10.21358862508	27848
1	3049204	10.21358862708	27849
1	3050287	10.213686029945	27850
1	3050301	10.213686031945	27851
1	3050315	10.213686033945	27852
1	3050343	10.213686037945	27853
1	3050350	10.213686038945	27854
1	3050364	10.213686040945	27855
1	3050371	10.213686041945	27856
1	3050406	10.213686046945	27857
1	3050413	10.213686047945	27858
1	3050476	10.213686056945	27859
1	3050483	10.213686057945	27860
1	3050525	10.213686063945	27861
1	3050532	10.213686064945	27862
1	3050567	10.213686069945	27863
1	3051670	10.21378347381	27864
1	3051677	10.21378347481	27865
1	3051733	10.21378348281	27866
1	3051761	10.21378348681	27867
1	3051782	10.21378348981	27868
1	3051796	10.21378349181	27869
1	3051803	10.21378349281	27870
1	3051845	10.21378349881	27871
1	3051852	10.21378349981	27872
1	3051887	10.21378350481	27873
1	3051901	10.21378350681	27874
1	3051908	10.21378350781	27875
1	3051922	10.21378350981	27876
1	3052966	10.213880911675	27877
1	3053036	10.213880921675	27878
1	3053043	10.213880922675	27879
1	3053050	10.213880923675	27880
1	3053057	10.213880924675	27881
1	3053092	10.213880929675	27882
1	3053106	10.213880931675	27883
1	3053113	10.213880932675	27884
1	3053120	10.213880933675	27885
1	3053162	10.213880939675	27886
1	3053197	10.213880944675	27887
1	3054299	10.21397835654	27888
1	3054306	10.21397835754	27889
1	3054404	10.21397837154	27890
1	3054411	10.21397837254	27891
1	3054418	10.21397837354	27892
1	3054425	10.21397837454	27893
1	3054432	10.21397837554	27894
1	3054446	10.21397837754	27895
1	3054460	10.21397837954	27896
1	3054481	10.21397838254	27897
1	3054488	10.21397838354	27898
1	3055646	10.214075786405	27899
1	3055660	10.214075788405	27900
1	3055674	10.214075790405	27901
1	3055681	10.214075791405	27902
1	3055702	10.214075794405	27903
1	3055751	10.214075801405	27904
1	3055779	10.214075805405	27905
1	3055828	10.214075812405	27906
1	3055835	10.214075813405	27907
1	3055842	10.214075814405	27908
1	3055849	10.214075815405	27909
1	3055884	10.214075820405	27910
1	3055891	10.214075821405	27911
1	3055905	10.214075823405	27912
1	3057082	10.21417322427	27913
1	3057089	10.21417322527	27914
1	3057110	10.21417322827	27915
1	3057117	10.21417322927	27916
1	3057124	10.21417323027	27917
1	3057131	10.21417323127	27918
1	3057138	10.21417323227	27919
1	3057159	10.21417323527	27920
1	3057173	10.21417323727	27921
1	3057180	10.21417323827	27922
1	3057278	10.21417325227	27923
1	3057292	10.21417325427	27924
1	3057299	10.21417325527	27925
1	3057320	10.21417325827	27926
1	3057334	10.21417326027	27927
1	3057341	10.21417326127	27928
1	3058552	10.214270669135	27929
1	3058566	10.214270671135	27930
1	3058587	10.214270674135	27931
1	3058594	10.214270675135	27932
1	3058622	10.214270679135	27933
1	3058636	10.214270681135	27934
1	3058643	10.214270682135	27935
1	3058657	10.214270684135	27936
1	3058706	10.214270691135	27937
1	3059890	10.214368101	27938
1	3059918	10.214368105	27939
1	3059967	10.214368112	27940
1	3059974	10.214368113	27941
1	3059981	10.214368114	27942
1	3059995	10.214368116	27943
1	3060009	10.214368118	27944
1	3060044	10.214368123	27945
1	3060093	10.21436813	27946
1	3060128	10.214368135	27947
1	3060142	10.214368137	27948
1	3060163	10.21436814	27949
1	3061260	10.214465540865	27950
1	3061274	10.214465542865	27951
1	3061295	10.214465545865	27952
1	3061302	10.214465546865	27953
1	3061316	10.214465548865	27954
1	3061330	10.214465550865	27955
1	3061351	10.214465553865	27956
1	3061365	10.214465555865	27957
1	3061386	10.214465558865	27958
1	3061421	10.214465563865	27959
1	3061435	10.214465565865	27960
1	3061442	10.214465566865	27961
1	3061484	10.214465572865	27962
1	3062732	10.21456298173	27963
1	3062739	10.21456298273	27964
1	3062767	10.21456298673	27965
1	3062823	10.21456299473	27966
1	3062830	10.21456299573	27967
1	3062851	10.21456299873	27968
1	3062900	10.21456300573	27969
1	3062935	10.21456301073	27970
1	3062984	10.21456301773	27971
1	3063005	10.21456302073	27972
1	3064061	10.214660421595	27973
1	3064138	10.214660432595	27974
1	3064159	10.214660435595	27975
1	3064187	10.214660439595	27976
1	3064208	10.214660442595	27977
1	3064229	10.214660445595	27978
1	3064236	10.214660446595	27979
1	3064257	10.214660449595	27980
1	3064278	10.214660452595	27981
1	3064306	10.214660456595	27982
1	3064313	10.214660457595	27983
1	3064341	10.214660461595	27984
1	3064355	10.214660463595	27985
1	3065425	10.21475786446	27986
1	3065439	10.21475786646	27987
1	3065474	10.21475787146	27988
1	3065495	10.21475787446	27989
1	3065509	10.21475787646	27990
1	3065530	10.21475787946	27991
1	3065544	10.21475788146	27992
1	3065579	10.21475788646	27993
1	3065593	10.21475788846	27994
1	3065600	10.21475788946	27995
1	3065614	10.21475789146	27996
1	3065621	10.21475789246	27997
1	3065649	10.21475789646	27998
1	3065670	10.21475789946	27999
1	3065677	10.21475790046	28000
1	3065684	10.21475790146	28001
1	3066815	10.214855304325	28002
1	3066822	10.214855305325	28003
1	3066829	10.214855306325	28004
1	3066836	10.214855307325	28005
1	3066857	10.214855310325	28006
1	3066906	10.214855317325	28007
1	3066934	10.214855321325	28008
1	3066941	10.214855322325	28009
1	3066969	10.214855326325	28010
1	3066997	10.214855330325	28011
1	3067011	10.214855332325	28012
1	3067032	10.214855335325	28013
1	3067074	10.214855341325	28014
1	3068288	10.21495274619	28015
1	3068309	10.21495274919	28016
1	3068344	10.21495275419	28017
1	3068351	10.21495275519	28018
1	3068379	10.21495275919	28019
1	3068400	10.21495276219	28020
1	3068428	10.21495276619	28021
1	3068435	10.21495276719	28022
1	3068456	10.21495277019	28023
1	3068470	10.21495277219	28024
1	3068491	10.21495277519	28025
1	3068498	10.21495277619	28026
1	3068505	10.21495277719	28027
1	3068512	10.21495277819	28028
1	3068526	10.21495278019	28029
1	3069626	10.215050182055	28030
1	3069633	10.215050183055	28031
1	3069640	10.215050184055	28032
1	3069661	10.215050187055	28033
1	3069675	10.215050189055	28034
1	3069689	10.215050191055	28035
1	3069703	10.215050193055	28036
1	3069710	10.215050194055	28037
1	3069717	10.215050195055	28038
1	3069745	10.215050199055	28039
1	3069759	10.215050201055	28040
1	3069773	10.215050203055	28041
1	3069780	10.215050204055	28042
1	3069836	10.215050212055	28043
1	3069864	10.215050216055	28044

